 22

C        -2.3954067330       -0.2345973026        0.0000000000
C        -1.1911541519       -0.8808466755        0.0000000000
C        -0.0014249757       -0.1063646272        0.0000000000
C         0.0172166488        1.2860875190        0.0000000000
C        -1.2489424817        1.9340590074        0.0000000000
C        -2.4022190837        1.1878172051        0.0000000000
C         1.3002668543        1.8999327478        0.0000000000
C         2.4331559911        1.1230856418        0.0000000000
C         2.3882691659       -0.2986332437        0.0000000000
C         1.1671472285       -0.9124138917        0.0000000000
C         0.7466156142       -2.3505225312        0.0000000000
C        -0.8092678824       -2.3296973443        0.0000000000
H         1.1452401598       -2.8788042058        0.8847463660
H         1.1452401598       -2.8788042058       -0.8847463659
H        -1.2218704267       -2.8471155520        0.8847558998
H        -1.2218704266       -2.8471155520       -0.8847558998
H         3.3199848339       -0.8717415445        0.0000000000
H         3.4172329671        1.6044127939        0.0000000000
H         1.3667285564        2.9928625768        0.0000000000
H        -1.2861599323        3.0283747715        0.0000000000
H        -3.3730888439        1.6952576204        0.0000000000
H        -3.3421148267       -0.7825851130        0.0000000000
