 25

C        -0.1932647095        2.2869828463       -0.0000000013
C         1.0786478675        1.4535347425       -0.0000000003
C         2.9215901667       -0.7034430829        0.0000000005
C         3.3250535099        0.6202711380        0.0000000010
C         2.4262881982        1.7178221070        0.0000000006
C         1.5413646427       -1.0128721549       -0.0000000001
C         0.7034074099        0.0900634333       -0.0000000004
C        -0.4826902977       -2.4108614508       -0.0000000006
C         0.8803679870       -2.2957149515       -0.0000000006
C        -1.3495448959       -1.2571070985       -0.0000000002
C        -0.7085869468       -0.0291831035       -0.0000000004
C        -1.3072663549        1.2519796608       -0.0000000004
C        -2.6801503066        1.2862856278        0.0000000006
C        -3.3819494808        0.0535378588        0.0000000010
C        -2.7620795908       -1.1837091493        0.0000000005
H        -0.2484416866        2.9394467279       -0.8894520168
H        -0.2484416861        2.9394467254        0.8894520116
H         3.6594995075       -1.5120424894        0.0000000008
H         4.3979477554        0.8434529522        0.0000000017
H         2.8146593466        2.7403368148        0.0000000008
H        -0.9534372104       -3.4000543101       -0.0000000006
H         1.5103647905       -3.1919332994       -0.0000000006
H        -3.2343309678        2.2292902630        0.0000000009
H        -4.4770865470        0.0932790209        0.0000000017
H        -3.3539373663       -2.1045965814        0.0000000008
