 33

C         0.2764514806        3.1644073220        0.0003775564
C         1.3908455402        2.1201675148       -0.0021832979
C         2.7995807004        2.1208492063        0.0022202598
C         3.4742245780        0.9107686942        0.0033428106
C         0.7911516179        0.8737948267       -0.0054134447
C        -1.0019834317        2.3291818823       -0.0021520167
C        -0.6274847484        0.9976989131       -0.0053587869
C        -3.2635553201        1.4996585827        0.0028083502
C        -2.3891921567        2.5743577128        0.0021010985
C        -2.8353294861        0.1373285068        0.0005276045
C        -1.4540146428       -0.1262238464       -0.0031592692
C        -0.8671947026       -1.4339714889       -0.0023440473
C        -1.7504004742       -2.4907955823        0.0000494235
C        -3.1493749507       -2.2582450431        0.0020115421
C        -3.6914886684       -0.9967795587        0.0026076129
C         1.4100503798       -0.3765454870       -0.0030077436
C         2.8161511051       -0.3566412039        0.0009361588
C         3.4626089858       -1.6220455211        0.0029858080
C         2.7098817403       -2.7703476522        0.0021526555
C         1.2917785098       -2.7566618106       -0.0000189495
C         0.6052935446       -1.5626329517       -0.0022986614
H         0.3326891373        3.8176826734       -0.8878514320
H         0.3341065432        3.8114051493        0.8929121970
H         3.3525235199        3.0650334018        0.0053656258
H         4.5704550226        0.9099788144        0.0066638335
H        -4.3433236696        1.6889463304        0.0058587269
H        -2.7697542137        3.6002203544        0.0047483424
H        -1.3819262367       -3.5239039261        0.0007211660
H        -3.8129329298       -3.1301920740        0.0033660272
H        -4.7767205091       -0.8495378362        0.0047152414
H         4.5569332215       -1.6651892987        0.0051548534
H         3.2120477380       -3.7442196379        0.0033997060
H         0.7497207872       -3.7102129732        0.0003742717
