 35

C        -0.5866699215       -1.9872690634       -0.0000000001
C         1.0300466410       -0.2322933367        0.0000000000
C         0.8682794675       -1.6191902422        0.0000000000
C         1.9640650466       -2.4962506483        0.0000000000
C         3.2293061802       -1.9663977713        0.0000000001
C         2.3320315414        0.3313173376        0.0000000000
C         3.4331507088       -0.5599365104        0.0000000001
C         4.7550872576       -0.0340580678        0.0000000000
C         4.9664504353        1.3168454832        0.0000000000
C         3.8684748999        2.2076243807       -0.0000000001
C         2.5869869479        1.7293037081        0.0000000000
C        -1.2575125350       -0.6447870096        0.0000000000
C        -0.3049828173        0.3755343616        0.0000000000
C        -0.7094649195        1.7253426569        0.0000000000
C        -2.0480415463        2.0239256436        0.0000000000
C        -2.6404159673       -0.3594366918        0.0000000000
C        -3.0324901318        0.9990546456        0.0000000000
C        -4.4188503524        1.3159114069        0.0000000000
C        -5.3568819822        0.3202118879        0.0000000000
C        -4.9614987600       -1.0387818245        0.0000000000
C        -3.6357655964       -1.3742141802        0.0000000000
H        -0.8602560796       -2.5856330365        0.8891197387
H        -0.8602560795       -2.5856330364       -0.8891197390
H         1.7971305503       -3.5778804038        0.0000000000
H         4.1054132104       -2.6251464867        0.0000000001
H         5.6003078253       -0.7319203372        0.0000000001
H         5.9831444820        1.7229548805        0.0000000000
H         4.0584851997        3.2859643183       -0.0000000001
H         1.7375571962        2.4257549502       -0.0000000001
H         0.0441623051        2.5238050422        0.0000000000
H        -2.3800539080        3.0686017431        0.0000000000
H        -4.7199301538        2.3696819489        0.0000000000
H        -6.4247183258        0.5621916424        0.0000000001
H        -5.7322394142       -1.8164257051        0.0000000001
H        -3.3168267414       -2.4227655369        0.0000000000
