 32

C        -3.4872435446        2.0086689739        0.0000000000
C        -4.3704520705        0.9726785743        0.0000000000
C        -3.6331282693       -0.3024574757        0.0000000000
C        -3.9741729058       -1.6368444819        0.0000000000
C        -2.9320152800       -2.5875199256        0.0000000000
C        -1.5926065215       -2.2321216142        0.0000000000
C        -2.1117697607        1.4810125532        0.0000000000
C        -2.2592216130        0.0404201952        0.0000000000
C        -1.2214861608       -0.8713402700        0.0000000000
C        -0.8705096326        2.0101277083        0.0000000000
C         0.2765016296        1.1138793830        0.0000000000
C         0.1206377770       -0.3126071578        0.0000000000
C         1.2373606662       -1.1291834742        0.0000000000
C         1.5536194565        1.6540617154        0.0000000000
C         2.6925535123        0.8257675811        0.0000000000
C         2.5337919447       -0.5794353223        0.0000000000
C         3.6933160733       -1.4107535598        0.0000000000
C         4.9394910308       -0.8550871491        0.0000000000
C         5.0994098601        0.5555898007        0.0000000000
C         4.0093002785        1.3760485212        0.0000000000
H        -3.7187503899        3.0718650451        0.0000000000
H        -5.4569720451        1.0335827212        0.0000000000
H        -5.0189194141       -1.9612854953        0.0000000000
H        -3.1988496964       -3.6500891375        0.0000000000
H        -0.8077456953       -2.9990469810        0.0000000000
H        -0.6941958552        3.0913249277        0.0000000000
H         1.1087575493       -2.2209619685        0.0000000000
H         1.6894248122        2.7431565790        0.0000000000
H         3.5602679331       -2.4984652845        0.0000000000
H         5.8329770070       -1.4880095567        0.0000000000
H         6.1118850311        0.9724362715        0.0000000000
H         4.1239664297        2.4659027651        0.0000000000
