 32

C         4.0570836079       -0.5856889050        0.0000000000
C         4.0181492186        0.8107774682        0.0000000000
C         2.8018053103        1.4669922411        0.0000000000
C         2.8791926283       -1.3086635489        0.0000000000
C         1.6341891786       -0.6576600817        0.0000000000
C         1.5950140300        0.7476249410        0.0000000000
C        -3.3395601207        0.5835842568        0.0000000000
C        -3.3018514442       -0.7686902809        0.0000000000
C         0.3962852267       -1.4258154393        0.0000000000
C        -0.8420109268       -0.7421793158        0.0000000000
C        -2.0474362587       -1.4742644918        0.0000000000
C        -2.0085285001       -2.8770517049        0.0000000000
C        -0.7927194103       -3.5373715566        0.0000000000
C         0.4020521597       -2.8188261131        0.0000000000
C        -0.8820822114        0.6941221737        0.0000000000
C        -2.1656960269        2.7607303898        0.0000000000
C        -2.1263854713        1.3579254436        0.0000000000
C        -0.9885888433        3.4877602939        0.0000000000
C         0.2443597347        2.8368149915        0.0000000000
C         0.3162356092        1.4456746341        0.0000000000
H         5.0209862648       -1.1047480088        0.0000000000
H         4.9516342061        1.3827294108        0.0000000000
H         2.7595492677        2.5671500165        0.0000000000
H         2.8983496144       -2.4094688827        0.0000000000
H        -4.2942801815        1.1220280706        0.0000000000
H        -4.2251015989       -1.3594826665        0.0000000000
H        -2.9463511091       -3.4439386233        0.0000000000
H        -0.7638642952       -4.6320358331        0.0000000000
H         1.3670051725       -3.3486879552        0.0000000000
H        -3.1336474389        3.2744916685        0.0000000000
H        -1.0206219197        4.5823295779        0.0000000000
H         1.1782306080        3.4196967325        0.0000000000
