 29

C        -3.2096827143        1.3307050824       -0.0000000014
C        -4.4144406977        0.4272056539       -0.0000000006
C        -4.0415635513       -0.8714413905        0.0000000003
C        -2.0665063230        0.3578812803       -0.0000000002
C        -2.5803914980       -0.9451913321        0.0000000003
C        -1.7317209190       -2.0562379222        0.0000000007
C        -0.3693787312       -1.8390788007        0.0000000005
C        -0.6828586561        0.5878027989        0.0000000003
C         0.1731399047       -0.5343775829        0.0000000004
C         1.2067309152        2.1078452794        0.0000000009
C        -0.1326988929        1.9139252392        0.0000000006
C         2.1109188269        0.9909846975        0.0000000005
C         1.6049508312       -0.3211752508        0.0000000002
C         2.5116128479       -1.4031760857       -0.0000000005
C         3.8696245943       -1.1812551026       -0.0000000010
C         4.3714391603        0.1305478351       -0.0000000006
C         3.5065794725        1.2013014100        0.0000000002
H        -3.1927545917        1.9878593660       -0.8889218596
H        -3.1927545920        1.9878593660        0.8889218545
H        -5.4286852128        0.8213871401       -0.0000000009
H        -4.6846155483       -1.7497553715        0.0000000008
H        -2.1468496135       -3.0686688636        0.0000000010
H         0.3295245612       -2.6898439234        0.0000000006
H         1.6311706337        3.1183591714        0.0000000012
H        -0.8309957950        2.7589228589        0.0000000007
H         2.1055310303       -2.4263213769       -0.0000000008
H         4.5667841630       -2.0254192635       -0.0000000016
H         5.4540373784        0.2936158909       -0.0000000009
H         3.8922694214        2.2271502827        0.0000000004
