 35

C         4.4205021378       -0.4700582491       -0.3605945499
C         4.3482658434        1.0067424358       -0.1018770238
C         3.1883039142       -1.0204423483       -0.3350836199
C         2.1817189756        0.0137092004       -0.0596379971
C         2.8749283826        1.2363768743        0.0504249525
C         2.2099921579        2.4373970020        0.2446897663
C         0.8274818492        2.4104677405        0.2696670536
C         0.7793691188       -0.0327368259        0.0556762784
C         0.1059479514        1.2089238160        0.1468128748
C        -0.0053402334       -1.2624489280        0.0840630118
C        -1.4063489789       -1.2042840512       -0.0479470871
C        -2.1538919832       -2.3954425242       -0.0823807529
C        -1.5439949694       -3.6245654952        0.0630748756
C        -0.1653339734       -3.6843517804        0.2742974388
C         0.5834860127       -2.5236929440        0.2889660621
C        -2.0865443132        0.0797283386       -0.0927250932
C        -1.3480507405        1.2627270158        0.0641596701
C        -2.0344780578        2.4917317082        0.0945849409
C        -3.4059987156        2.5471293743       -0.0499120116
C        -4.1362829705        1.3693140520       -0.2326934204
C        -3.4829200965        0.1539678452       -0.2510504460
H         5.3643077308       -0.9799985688       -0.5439637484
H         4.9068200147        1.2928762229        0.8081520887
H         4.7729839455        1.5891535511       -0.9399916696
H         2.9476850879       -2.0706213334       -0.5120657126
H         2.7629171615        3.3753931305        0.3521563346
H         0.2756634476        3.3563148802        0.3787740403
H        -3.2444504334       -2.3358481156       -0.2184876916
H        -2.1356457016       -4.5448488689        0.0291524588
H         0.3207248767       -4.6529535294        0.4305233333
H         1.6609186261       -2.6024751744        0.4838188837
H        -1.4639386074        3.4224059532        0.2314064957
H        -3.9238348946        3.5114052498       -0.0256595969
H        -5.2230018219        1.4139937652       -0.3568660504
H        -4.0541023534       -0.7770863377       -0.3850305010
