 35

C        -1.6694203354        1.7990569630        0.0000000001
C        -2.0316976724       -0.5620278898        0.0000000000
C        -2.6838696663        0.6961337823        0.0000000000
C        -4.0630514159        0.7921982507        0.0000000000
C        -4.8101622047       -0.3864768570        0.0000000000
C        -4.1788431815       -1.6253554569       -0.0000000001
C        -2.7875491336       -1.7253336229       -0.0000000001
C        -0.3697644341        1.0438626044        0.0000000000
C        -0.5826137409       -0.3208363736        0.0000000000
C         0.9397815951        1.6104661074        0.0000000000
C         2.0428689580        0.7348598643        0.0000000000
C         3.3434346927        1.2867845096        0.0000000000
C         3.5320829208        2.6492590398       -0.0000000001
C         2.4270873305        3.5171710876        0.0000000000
C         1.1500883016        3.0068644457        0.0000000000
C         1.8310936740       -0.6980459141        0.0000000000
C         0.5241848507       -1.2334239234        0.0000000000
C         0.3600707033       -2.6353533394        0.0000000000
C         1.4494147214       -3.4754723939        0.0000000000
C         2.7486499864       -2.9448831593        0.0000000000
C         2.9328475509       -1.5822383999        0.0000000000
H        -1.7668357038        2.4496524217        0.8892781852
H        -1.7668357039        2.4496524218       -0.8892781849
H        -4.5561322895        1.7690355230        0.0000000001
H        -5.9037231596       -0.3331066352        0.0000000000
H        -4.7819209621       -2.5394433938       -0.0000000001
H        -2.3079426898       -2.7124927413       -0.0000000001
H         4.2055883212        0.6025631236        0.0000000000
H         4.5445330896        3.0660321106       -0.0000000001
H         2.5911192802        4.5996293128        0.0000000000
H         0.2813743824        3.6754256311        0.0000000000
H        -0.6528840365       -3.0595623567        0.0000000000
H         1.3095132661       -4.5613948331        0.0000000000
H         3.6101170650       -3.6204252749        0.0000000001
H         3.9481759326       -1.1569957648        0.0000000000
