 20

C         1.1865251500        0.7489917158        0.0000000000
C        -0.0647646398        1.4644511552        0.0000000000
C        -1.1950313266        0.7289826375        0.0000000000
C        -1.1865251945       -0.7489917147        0.0000000000
C         0.0647645825       -1.4644511534        0.0000000000
C         1.1950312917       -0.7289826556        0.0000000000
C        -2.4811568956       -1.1844270771        0.0000000000
C        -3.3619021443       -0.0144258221        0.0000000000
C        -2.6090990726        1.1194178731        0.0000000000
C         2.6090990716       -1.1194179026        0.0000000000
C         3.3619021715        0.0144258320        0.0000000000
C         2.4811568965        1.1844271087        0.0000000000
H        -0.0654452096        2.5588765932        0.0000000000
H         0.0654451361       -2.5588765932        0.0000000000
H        -2.8351440076       -2.2133019769        0.0000000000
H        -4.4475860056       -0.0837204150        0.0000000000
H        -2.9524655897        2.1514807736        0.0000000000
H         2.8351439944        2.2133020182        0.0000000000
H         4.4475860393        0.0837204198        0.0000000000
H         2.9524656008       -2.1514808034        0.0000000000
