 31

C        -0.3730039885        2.0682846245        0.0056872921
C        -1.7889060850        1.5152516434        0.0038945403
C        -4.0318128798       -0.2167666197       -0.0028875762
C        -4.1577188628        1.1655610470        0.0018563405
C        -3.0568112287        2.0525613899        0.0049902189
C        -2.7477562921       -0.7981415076       -0.0037051717
C        -1.7006622887        0.1076855088       -0.0001359221
C        -1.0593081117       -2.5905266014       -0.0054600158
C        -2.3633656147       -2.1957911664       -0.0069847974
C         0.0405658483       -1.6440429725       -0.0026343632
C        -0.3345943823       -0.2941252966        0.0006158844
C         0.4973028623        0.8207485903        0.0032130219
C         1.4095976276       -1.8775130732       -0.0037177645
C         2.3125955306       -0.7853142896       -0.0016813187
C         1.8791221909        0.5768401294        0.0025728212
C         2.8460640013        1.6241129254        0.0056545500
C         4.1783205706        1.3350765921        0.0032538100
C         4.6190698649       -0.0147812502       -0.0011893616
C         3.7196060048       -1.0395274333       -0.0034531885
H        -0.1805140786        2.6959654265       -0.8828195677
H        -0.1807009369        2.6932888652        0.8960230534
H        -4.9204025004       -0.8561327236       -0.0050318953
H        -5.1635195349        1.6005659897        0.0032869220
H        -3.2242704726        3.1334745833        0.0075043512
H        -0.8036915766       -3.6559388225       -0.0050923714
H        -3.1678231225       -2.9394864999       -0.0111959775
H         1.8002019018       -2.9014363528       -0.0072352840
H         2.4882780327        2.6597915966        0.0097145381
H         4.9250180999        2.1357437430        0.0046148262
H         5.6950562141       -0.2177938747       -0.0023137080
H         4.0623040190       -2.0808892861       -0.0061332192
