 20

C        -0.7154159062       -0.5848401071        0.0000000000
C         0.7141744227       -0.5863577245        0.0000000000
C         1.3943105327        0.7301510865        0.0000000000
C         0.7288293195        1.9005646118        0.0000000000
C        -0.7247848196        1.9021081467        0.0000000000
C        -1.3927574698        0.7331261435        0.0000000000
C         1.6620233894       -1.5633825482        0.0000000000
C         2.9854248094       -0.9184128948        0.0000000000
C         2.8354722302        0.4308574752        0.0000000000
C        -2.8345460733        0.4368813074        0.0000000000
C        -2.9873767213       -0.9120736493        0.0000000000
C        -1.6653446367       -1.5598595055        0.0000000000
H         1.2533612236        2.8616113149        0.0000000000
H        -1.2472658295        2.8642712528        0.0000000000
H         1.5107492966       -2.6403935234        0.0000000000
H         3.9184027792       -1.4781001275        0.0000000000
H         3.6104976361        1.1937785473        0.0000000000
H        -3.6079602516        1.2014388259        0.0000000000
H        -3.9215569268       -1.4697511170        0.0000000000
H        -1.5163360071       -2.6371868784        0.0000000000
