 31

C         1.9823392824        0.8710990508        0.0000000000
C         2.0903624563       -0.5591834489        0.0000000000
C         3.3284799480       -1.1679490210        0.0000000000
C         4.4694506611       -0.3559223367        0.0000000000
C         4.3650038499        1.0274004668       -0.0000000001
C         3.1150586478        1.6588905476        0.0000000000
C         0.5587872920        1.2345658643        0.0000000000
C        -0.1731535880        2.3928664395        0.0000000000
C        -1.5933504454        2.3109851638        0.0000000000
C         0.7371361545       -1.1318424721        0.0000000000
C        -0.1429625927       -0.0083773871        0.0000000000
C        -1.2336555150       -2.5115464871        0.0000000000
C         0.1842506100       -2.3846334349        0.0000000001
C        -2.0790160947       -1.4205248501        0.0000000000
C        -1.5211617397       -0.1122274345        0.0000000000
C        -2.2651283354        1.1032214191        0.0000000000
C        -3.7121950268        0.9671892785        0.0000000000
C        -4.2940613506       -0.2411977876       -0.0000000001
C        -3.5651210830       -1.5409290500       -0.0000000001
H         3.4164639323       -2.2588656666        0.0000000000
H         5.4589484600       -0.8249549170       -0.0000000001
H         5.2728305846        1.6397345124       -0.0000000001
H         3.0385619240        2.7506872151       -0.0000000001
H         0.3125198795        3.3738301815        0.0000000000
H        -2.1670455360        3.2448676489        0.0000000000
H        -1.6613511714       -3.5205309806        0.0000000000
H         0.8077828319       -3.2842128694        0.0000000001
H        -4.3079135120        1.8870047377        0.0000000000
H        -5.3876492948       -0.3224591532       -0.0000000001
H        -3.8862569407       -2.1277135744        0.8857894450
H        -3.8862569406       -2.1277135743       -0.8857894452
