 32

C         0.9016754718       -2.4167794807        0.0000000000
C         0.9430515534       -1.0056472823        0.0000000000
C        -0.2615512613       -0.2802958590        0.0000000000
C        -1.4982830425       -0.9860623884        0.0000000000
C        -1.5071113395       -2.3713209715        0.0000000000
C        -0.3012240694       -3.0853175000        0.0000000000
C        -0.2246542302        1.1647461107        0.0000000000
C         0.9716944977        1.8236786968        0.0000000000
C         2.2099197379        1.1063013215        0.0000000000
C         2.2049049843       -0.2998078152        0.0000000000
C        -2.7191678640       -0.2152029302        0.0000000000
C        -2.6403644894        1.2592543672        0.0000000000
C        -1.4714181530        1.9183645698        0.0000000000
C         3.4379180183       -0.9883180373        0.0000000000
C         4.6269401426       -0.2969686410        0.0000000000
C         4.6288790103        1.1087862708        0.0000000000
C         3.4407192235        1.8012816508        0.0000000000
C        -4.0360686061       -0.5715159761        0.0000000000
C        -4.8449568719        0.6513763911        0.0000000000
C        -4.0272467173        1.7380184343        0.0000000000
H        -4.3060394388        2.7890340357        0.0000000000
H        -5.9328555555        0.6464639805        0.0000000000
H        -4.4553445749       -1.5756507325        0.0000000000
H        -1.4226970508        3.0134556304        0.0000000000
H         1.0069985707        2.9208110402        0.0000000000
H         3.4222308402       -2.0890888677        0.0000000000
H         5.5795161406       -0.8369278897        0.0000000000
H         5.5829538196        1.6459829118        0.0000000000
H         3.4352976552        2.8972985544        0.0000000000
H        -2.4602081665       -2.9127293366        0.0000000000
H        -0.3235986050       -4.1800821775        0.0000000000
H         1.8543759949       -2.9683339021        0.0000000000
