 32

C        -4.0359669890       -1.3525099371        0.0000000000
C        -2.7215308347       -0.7672702210        0.0000000000
C        -2.6045270807        0.6572251153        0.0000000000
C        -3.8047431846        1.4501265355        0.0000000000
C        -5.0245743632        0.8573958415        0.0000000000
C        -5.1421996710       -0.5680748709        0.0000000000
C        -1.3503944718        1.2452966221        0.0000000000
C        -0.1856468896        0.4541800111        0.0000000000
C        -0.2938447886       -0.9771838440        0.0000000000
C        -1.5826762112       -1.5553771553        0.0000000000
C         1.1113556909        1.0048239448        0.0000000000
C         2.2017108958        0.1344115594        0.0000000000
C         2.1248124999       -1.2678457722        0.0000000000
C         0.8514150304       -1.8176235642        0.0000000000
C         3.3916392343       -1.9515783357        0.0000000000
C         4.5576799576       -1.2448144933        0.0000000000
C         4.6084137529        0.1932879244        0.0000000000
C         3.4380790587        0.8802977845        0.0000000000
C         3.0308609544        2.2946054691        0.0000000000
C         1.6682216476        2.3655250651        0.0000000000
H         1.0558110311        3.2653131213        0.0000000000
H         3.7351424063        3.1234901525        0.0000000000
H         3.3935650596       -3.0468986282        0.0000000000
H         5.5145259098       -1.7787947981        0.0000000000
H         5.5809737053        0.6948093984        0.0000000000
H         0.7186563551       -2.9060240304        0.0000000000
H        -1.2502146859        2.3378181660        0.0000000000
H        -1.6777009203       -2.6487380075        0.0000000000
H        -3.7039040222        2.5413869472        0.0000000000
H        -5.9410821313        1.4564080353        0.0000000000
H        -6.1444437635       -1.0087927482        0.0000000000
H        -4.1161572719       -2.4454983069        0.0000000000
