 33

C         3.2976054687        1.8479550469        0.0121563826
C         2.9551062858        0.5536708522        0.0202896714
C         3.9531124717       -0.4935603001        0.1109558901
C         3.5809298605       -1.7904081007        0.1296774033
C         2.1970103095       -2.1687712501        0.0680410965
C         1.5502090426        0.1771988080       -0.0461685577
C         1.2115099199       -1.2335563963       -0.0083860469
C         0.5913968651        1.1485920215       -0.1242797880
C        -1.3609441826        3.1907710214        0.1547650672
C        -0.0752305570        3.5478644778        0.0127484553
C         0.9878269789        2.5665563697       -0.2945212993
C        -0.2035123922       -1.5973887505       -0.0453245809
C        -0.6083206191       -2.9173478139       -0.0630620076
C        -1.9768317407       -3.2506113666       -0.0639474333
C        -2.9349304029       -2.2698857314       -0.0292001205
C        -0.8095238017        0.8079282851       -0.0358289916
C        -1.1882217146       -0.5660179516       -0.0335614827
C        -2.5567137239       -0.9029694977       -0.0036869614
C        -3.5275346995        0.1349432554        0.0621323669
C        -3.1455945168        1.4477453899        0.1120754162
C        -1.7730343313        1.8022725811        0.0679929480
H         1.3357355880        2.7328927366       -1.3405392677
H         1.9424367815        2.7737913205        0.3350329273
H         5.0047845133       -0.1924036108        0.1629965027
H         4.3283213537       -2.5882974116        0.1922245336
H         1.9325075994       -3.2373801750        0.0848576756
H        -2.1395857436        3.9378073654        0.3478153842
H         0.2342545965        4.5959916920        0.0885095507
H         0.1546084786       -3.7111235466       -0.0675417774
H        -2.2653624412       -4.3067439936       -0.0856862182
H        -4.0001827172       -2.5265611072       -0.0185516834
H        -4.5886660043       -0.1384674920        0.0824771308
H        -3.8953169090        2.2439820311        0.1842632735
