 35

C         5.1050868577       -1.7042006412       -0.0000000004
C         5.6025904820       -0.3682552025       -0.0000000003
C         4.7466492796        0.6882631245       -0.0000000001
C         3.7666400403       -1.9434527871       -0.0000000002
C         2.8327704766       -0.8557596092        0.0000000000
C         3.3287858869        0.4768709182        0.0000000000
C         2.4357024157        1.5501088724        0.0000000002
C         1.4556147938       -1.0814983249        0.0000000002
C         0.5613417639       -0.0077892268        0.0000000003
C         1.0549804376        1.3300623445        0.0000000002
C         0.1378334416        2.4333376391        0.0000000002
C        -1.2110567348        2.2361339748        0.0000000001
C        -0.8517806385       -0.1826474385        0.0000000003
C        -1.7050187774        0.9079388367        0.0000000001
C        -1.6329901868       -1.4685760963        0.0000000005
C        -3.0565178799       -0.9866394818        0.0000000001
C        -3.0854850598        0.4289440737        0.0000000000
C        -4.2886442290        1.1149701532       -0.0000000003
C        -5.4702254119        0.3722395198       -0.0000000005
C        -5.4422895827       -1.0185969318       -0.0000000003
C        -4.2313745848       -1.7149932178        0.0000000000
H         5.8224989600       -2.5313044761       -0.0000000005
H         6.6862506674       -0.2118948846       -0.0000000005
H         5.1201042612        1.7185631397       -0.0000000001
H         3.3748080350       -2.9668267691       -0.0000000002
H         2.8219611491        2.5770420582        0.0000000001
H         1.0671336172       -2.1075269539        0.0000000002
H         0.5518711172        3.4482654139        0.0000000001
H        -1.9184559935        3.0719277534       -0.0000000001
H        -1.4066576525       -2.0861979957        0.8889365965
H        -1.4066576523       -2.0861979959       -0.8889365954
H        -4.3085488145        2.2094512721       -0.0000000004
H        -6.4330086823        0.8938441011       -0.0000000007
H        -6.3833479519       -1.5784442540       -0.0000000004
H        -4.2144025589       -2.8089902771        0.0000000001
