 24

C         2.8229997004       -0.8726700817        0.0000000000
C         3.5236803828        0.3120470214        0.0000000000
C         2.8385765743        1.5385405782        0.0000000000
C         1.4628551235        1.5629118216        0.0000000000
C         1.4114402866       -0.8657070763        0.0000000000
C         0.7237737357        0.3605447160        0.0000000000
C        -0.6809063323       -2.0957417434        0.0000000000
C         0.6731695250       -2.0982402671        0.0000000000
C        -1.4146241854       -0.8604977441        0.0000000000
C        -0.7224447222        0.3632096074        0.0000000000
C        -1.4570920850        1.5682871976        0.0000000000
C        -2.8328872400        1.5489788744        0.0000000000
C        -3.5224919647        0.3250282878        0.0000000000
C        -2.8261860188       -0.8622551744        0.0000000000
H         3.3527199348       -1.8320822558        0.0000000000
H         4.6185221028        0.3067495937        0.0000000000
H         3.4073058414        2.4740414805        0.0000000000
H         0.9100998939        2.5149351138        0.0000000000
H        -1.2473143321       -3.0341159657        0.0000000000
H         1.2361048846       -3.0387022377        0.0000000000
H        -0.9008546614        2.5182799012        0.0000000000
H        -3.3981649496        2.4865676610        0.0000000000
H        -4.6173437835        0.3237593764        0.0000000000
H        -3.3594410744       -1.8197052433        0.0000000000
