 12

C        -0.6224311940       -1.2440460991        0.0000000000
C         0.7661173736       -1.1610899236        0.0000000000
C         1.3885518392        0.0829615221        0.0000000000
C         0.6224433589        1.2440383099        0.0000000000
C        -0.7661010957        1.1610991532        0.0000000000
C        -1.3885527952       -0.0829351757        0.0000000000
H        -1.1126103894       -2.2229023481        0.0000000000
H         1.3691666073       -2.0747480281        0.0000000000
H         2.4813502101        0.1481066684        0.0000000000
H         1.1125135905        2.2229559635        0.0000000000
H        -1.3694153325        2.0745848130        0.0000000000
H        -2.4813319657       -0.1483279221        0.0000000000
