 29

C         0.7741060289       -1.5562489428        0.0000000000
C         1.8901677046        0.5585076783        0.0000000000
C         2.0964197180       -0.8420318415        0.0000000000
C         3.3758584661       -1.3651091051        0.0000000000
C         4.4546857879       -0.4774644893        0.0000000000
C         4.2514483382        0.8984750802        0.0000000000
C         2.9626384002        1.4345790026        0.0000000000
C        -0.2134415234       -0.4212745342        0.0000000000
C         0.4495752112        0.8043573008        0.0000000000
C        -0.2571267353        2.0205727583        0.0000000000
C        -1.6290896265        1.9838275639        0.0000000000
C        -1.6242835177       -0.4775250169        0.0000000000
C        -2.3318741249        0.7480095646        0.0000000000
C        -3.7541639802        0.7195088373        0.0000000000
C        -4.4241984101       -0.4729050901        0.0000000000
C        -3.7129244032       -1.6967166310        0.0000000000
C        -2.3456100841       -1.7023351522        0.0000000000
H         0.6552033532       -2.2034468895        0.8887656593
H         0.6552033532       -2.2034468896       -0.8887656593
H         3.5406695817       -2.4467590376        0.0000000000
H         5.4755213809       -0.8735735692        0.0000000000
H         5.1140787573        1.5729104837        0.0000000000
H         2.8005223404        2.5171742552        0.0000000000
H         0.2919652428        2.9679021135        0.0000000000
H        -2.2067824971        2.9152859630        0.0000000000
H        -4.3012287169        1.6691823119        0.0000000000
H        -5.5188783560       -0.4955392456        0.0000000000
H        -4.2734552019       -2.6372166991        0.0000000000
H        -1.7825892819       -2.6426407769        0.0000000000
