 31

C        -2.3912147921       -1.0204986547        0.0000000000
C        -1.8942304574       -2.3722567027        0.0000000000
C        -0.5657976628       -2.6264302357        0.0000000000
C         0.4004637357       -1.5574366127        0.0000000000
C        -0.0591968135       -0.2189444126        0.0000000000
C        -1.4674405722        0.0489176725        0.0000000000
C         0.8550116821        0.8666872525        0.0000000000
C         2.2125506210        0.5695410027        0.0000000000
C         2.6613217689       -0.7711971867        0.0000000000
C         1.7754734097       -1.8340369344        0.0000000000
C        -1.9362807335        1.3830947839        0.0000000000
C        -0.9799050732        2.4619627058        0.0000000000
C         0.3490618585        2.2152891132        0.0000000000
C        -3.7625316548       -0.7452017363        0.0000000000
C        -4.2124386039        0.5688276868        0.0000000000
C        -3.3118170978        1.6281286731        0.0000000000
C         4.1258580884       -0.7651401469        0.0000000001
C         4.5623502250        0.5123218200        0.0000000000
C         3.4069229342        1.4780229714       -0.0000000001
H         4.7251925583       -1.6739867053        0.0000000001
H         5.5952520304        0.8551467712        0.0000000000
H         3.4250741190        2.1362097129       -0.8883997089
H         3.4250741190        2.1362097131        0.8883997086
H         2.1382680629       -2.8674298242        0.0000000001
H        -2.6255702889       -3.1885884456        0.0000000000
H        -0.1899281098       -3.6561421785        0.0000000000
H         1.0800315545        3.0322102858        0.0000000000
H        -1.3641045359        3.4884440694        0.0000000000
H        -3.6791646018        2.6605560469        0.0000000000
H        -5.2883234328        0.7732881060        0.0000000000
H        -4.4813324904       -1.5723472016        0.0000000000
