 23

C        -2.5141705985       -1.0093840952        0.0000000000
C        -1.0972765623       -0.8890942389        0.0000000000
C        -0.5210940624        0.4031340447        0.0000000000
C        -1.3647793668        1.5450776621        0.0000000000
C        -2.7252294662        1.3970663642        0.0000000000
C        -3.3052722061        0.1070810985        0.0000000000
C         0.8915719426        0.4877309216        0.0000000000
C         1.6755039016       -0.6649407338        0.0000000000
C         1.0981644151       -1.9449592084        0.0000000000
C        -0.2708267211       -2.0470472430        0.0000000000
C         3.1241628720       -0.2767376730        0.0000000000
C         3.0610724628        1.2272701581        0.0000000000
C         1.7774435153        1.6520689359        0.0000000000
H         1.4202899066        2.6809538457       -0.0000000001
H         3.6552542951       -0.6626321552       -0.8892167625
H         3.6552542951       -0.6626321551        0.8892167626
H         3.9589401945        1.8418256716        0.0000000000
H        -0.7510031595       -3.0323240176        0.0000000000
H         1.7370323427       -2.8333648769        0.0000000000
H        -0.9070142073        2.5407877214        0.0000000000
H        -3.3798682235        2.2746395703        0.0000000001
H        -4.3962585284        0.0149923837        0.0000000000
H        -2.9597754895       -2.0106243393        0.0000000000
