 35

C        -5.7935974984        0.2299655510        0.0000000000
C        -5.5977269736       -1.1806531891        0.0000000002
C        -4.3417817312       -1.7044088134        0.0000000002
C        -4.7278943778        1.0761834903       -0.0000000001
C        -3.3916833425        0.5613897839       -0.0000000001
C        -3.1964040747       -0.8448725917        0.0000000000
C        -1.8974592660       -1.3638664991        0.0000000000
C        -2.2832112388        1.4149620633       -0.0000000002
C        -0.9876775106        0.8985975200       -0.0000000001
C        -0.7915951160       -0.5133464205       -0.0000000001
C         0.5424406979       -1.0483859656       -0.0000000001
C         0.1504774708        1.7789049867        0.0000000000
C         1.3948564351        1.2449026848        0.0000000000
C         1.5924810756       -0.1890426457       -0.0000000001
C         2.7269042979        1.9413444932        0.0000000002
C         3.7081505609        0.8034148690        0.0000000001
C         3.0319233034       -0.4390112256       -0.0000000001
C         3.7362593921       -1.6306330897       -0.0000000001
C         5.1320753577       -1.5742456070       -0.0000000001
C         5.7970734430       -0.3541040525        0.0000000001
C         5.0891856698        0.8514701780        0.0000000002
H        -6.8172166886        0.6185010221        0.0000000000
H        -6.4767574715       -1.8333809366        0.0000000003
H        -4.1814387727       -2.7884662115        0.0000000003
H        -4.8691184524        2.1628953068       -0.0000000002
H        -1.7484911678       -2.4507524084        0.0000000001
H        -2.4366995159        2.5012178454       -0.0000000002
H         0.6887410317       -2.1343558234       -0.0000000001
H        -0.0123866032        2.8619863275        0.0000000000
H         2.8511371967        2.5879874293        0.8882900984
H         2.8511371969        2.5879874296       -0.8882900977
H         3.2105938101       -2.5909155020       -0.0000000003
H         5.7075215501       -2.5058190190       -0.0000000001
H         6.8918945879       -0.3332249503        0.0000000002
H         5.6175361562        1.8096927583        0.0000000003
