 35

C         5.8046245734       -0.7033317625        0.0000000000
C         5.2768347611        0.7074176207       -0.0000000001
C         4.8023584252       -1.6055302454        0.0000000001
C         3.5165762563       -0.9039373028        0.0000000000
C         3.7890132948        0.5119179654       -0.0000000001
C         2.7826883241        1.4226851341       -0.0000000001
C         2.2426720095       -1.3806181266        0.0000000001
C         1.1611700299       -0.4420652616        0.0000000000
C         1.4288238453        0.9515166757        0.0000000000
C         0.3563298015        1.8592949354        0.0000000000
C        -0.1714108092       -0.8874874257        0.0000000001
C        -1.2280056193        0.0125392576        0.0000000001
C        -0.9569483398        1.4088363351        0.0000000001
C        -2.0561837178        2.3445162381        0.0000000001
C        -3.3362198018        1.9165692391        0.0000000001
C        -2.6096132674       -0.4381596637        0.0000000000
C        -3.6482274212        0.5084400853        0.0000000000
C        -4.9868103941        0.0736227961        0.0000000000
C        -5.2810649176       -1.2745546031       -0.0000000001
C        -4.2476155594       -2.2203604134       -0.0000000001
C        -2.9310975384       -1.8083555321        0.0000000000
H         6.8732753055       -0.9110834713        0.0000000000
H         5.6194024914        1.2690803822        0.8884058052
H         5.6194024913        1.2690803821       -0.8884058055
H         4.8860399273       -2.6911786249        0.0000000002
H         2.9783120143        2.5001430626       -0.0000000002
H         2.0291524143       -2.4546262115        0.0000000001
H         0.5648891279        2.9364738048        0.0000000000
H        -0.3895597357       -1.9678234647        0.0000000001
H        -1.8184586776        3.4146180102        0.0000000001
H        -4.1704323212        2.6275992855        0.0000000001
H        -5.7926309981        0.8164294131        0.0000000000
H        -6.3228100288       -1.6113398941       -0.0000000001
H        -4.4900731620       -3.2879755050       -0.0000000002
H        -2.1084518666       -2.5399345618       -0.0000000001
