 31

C         3.6786411532        0.0873699195        0.0000000000
C         3.6870435713        1.4615557969        0.0000000000
C         2.4801397640        2.1819946758        0.0000000000
C         2.4512319446       -0.6135422395        0.0000000000
C         1.2362900705       -2.7136771555        0.0000000000
C         2.4194546172       -2.0442684915        0.0000000000
C        -0.0041267552       -2.0028302902        0.0000000000
C        -2.4278357138       -2.0343517698        0.0000000000
C        -1.2474284894       -2.7085594744        0.0000000000
C        -2.4536956288       -0.6034851760        0.0000000000
C        -2.4711530257        2.1920815406        0.0000000000
C        -3.6810216844        1.4765936594        0.0000000000
C        -3.6782350635        0.1024220706        0.0000000000
C         1.2414445771        0.1062034404        0.0000000000
C         1.2665349044        1.5227332961        0.0000000000
C         0.0047464676        2.3186226792       -0.0000000001
C        -1.2603294114        1.5278538941        0.0000000000
C        -1.2409787554        0.1111987825        0.0000000000
C        -0.0012050863       -0.6089542907        0.0000000000
H         4.6172233223       -0.4780143686        0.0000000001
H         4.6352897650        2.0090974652        0.0000000000
H         2.5089728711        3.2774268817        0.0000000000
H         1.2102294304       -3.8093807547       -0.0000000001
H         3.3721728218       -2.5860562612        0.0000000000
H        -3.3827998809       -2.5721532781        0.0000000000
H        -1.2258456720       -3.8043633176       -0.0000000001
H        -2.4954734517        3.2876222514        0.0000000000
H        -4.6270603445        2.0279336996        0.0000000000
H        -4.6191632040       -0.4590452280        0.0000000001
H         0.0060999565        2.9884723304        0.8855932293
H         0.0060999565        2.9884723303       -0.8855932296
