 32

C         2.7510644356        1.5137980603        0.0000000000
C         2.0456263504        0.2669604895        0.0000000000
C         2.8212700898       -0.9841709681        0.0000000000
C         4.2552348117       -0.9216436878        0.0000000000
C         4.8631446327        0.2872797931        0.0000000000
C         4.1052311523        1.5135110480        0.0000000000
C         1.9678750434       -2.0549232294        0.0000000000
C         0.6054629530       -1.5263097294        0.0000000000
C        -0.5774756358       -2.1707359790        0.0000000000
C        -1.8081739040       -1.4013847296        0.0000000000
C        -1.7516595220        0.0261617376        0.0000000000
C        -0.5023532177        0.7296395508        0.0000000000
C         0.7057396508       -0.0545124423        0.0000000000
C        -3.0321180713       -2.0433447402        0.0000000000
C        -4.2285261357       -1.3021882979        0.0000000000
C        -4.1965802863        0.0692282387        0.0000000000
C        -2.9569669066        0.7591043658        0.0000000000
C        -0.5010279898        2.1101839330        0.0000000000
C        -1.7114446323        2.8332084760        0.0000000000
C        -2.9145485510        2.1796797218        0.0000000000
H        -5.1266315829        0.6495466740        0.0000000000
H        -5.1856482701       -1.8344705621        0.0000000000
H        -3.0804476574       -3.1386950071        0.0000000000
H         0.4536514565        2.6576339478        0.0000000000
H        -1.6748595310        3.9277697309        0.0000000000
H        -3.8573765461        2.7382619656        0.0000000000
H        -0.6389945595       -3.2654151870        0.0000000000
H         2.2189545960       -3.1128306129        0.0000000000
H         4.8212323738       -1.8583029843        0.0000000000
H         5.9553395146        0.3646520068        0.0000000000
H         4.6630715414        2.4557274400        0.0000000000
H         2.1688061721        2.4457414887        0.0000000000
