 31

C        -2.4672177257       -2.3605132754       -0.0000000560
C        -2.2919935193       -0.9837469392       -0.0000000532
C        -0.9661865779       -0.4942302150        0.0000000443
C         0.1663223061       -1.3218885312        0.0000000651
C        -0.0565286412       -2.7113221802        0.0000000912
C        -1.3481529628       -3.2073342325        0.0000000429
C        -0.7673628465        0.9036795616        0.0000001016
C        -1.8554800368        1.8668937594        0.0000000477
C        -3.1943836907        1.3216381862       -0.0000001126
C        -3.3854581587       -0.0177511115       -0.0000001576
C         1.4813532602       -0.7032078681        0.0000000455
C         1.6354956813        0.7070171687       -0.0000000093
C         0.4577488121        1.5197096245        0.0000000766
C         2.9289133087        1.2657346465       -0.0000001349
C         4.0397837250        0.4513635842       -0.0000001625
C         3.8929971726       -0.9444301325       -0.0000000313
C         2.6371121489       -1.5099945082        0.0000000562
C        -1.3036703735        3.1104052295        0.0000000471
C         0.2090932992        3.0035383317        0.0000001302
H         0.6453788222        3.4938258836       -0.8894789654
H         0.6453786124        3.4938256766        0.8894794564
H        -1.8166492407        4.0692499293       -0.0000000750
H        -4.4010624730       -0.4308850297       -0.0000002677
H        -4.0383747427        2.0187341564       -0.0000002100
H         3.0333198601        2.3565206630       -0.0000002015
H         5.0439125561        0.8877524131       -0.0000002531
H         4.7839232025       -1.5806984422       -0.0000000317
H         2.5031220981       -2.6031368899        0.0000001204
H         0.8169123239       -3.3806127892        0.0000001328
H        -1.5070760237       -4.2911238292        0.0000000533
H        -3.4748874167       -2.7899155952       -0.0000001215
