 28

C        -2.6957754391        2.1321410892        0.0000000000
C        -3.4929451827        1.0242072916        0.0000000000
C        -1.2777855920        1.7235209486        0.0000000000
C        -0.0644271922        2.3289432215        0.0000000000
C         1.1387000361        1.5094869879        0.0000000000
C         3.4548147812       -0.1200428528        0.0000000000
C         3.5494074263        1.2683463479        0.0000000000
C         2.4166220949        2.0780220421        0.0000000000
C        -1.3314436890        0.2801486514        0.0000000000
C        -2.6557642343       -0.1892991536        0.0000000000
C        -2.8502599140       -1.5649999888        0.0000000000
C        -1.7356999709       -2.4184173537        0.0000000000
C         1.0561849255        0.0930246785        0.0000000000
C        -0.2209024651       -0.5392347200        0.0000000000
C        -0.4181962298       -1.9360706326        0.0000000000
C         0.7785376745       -2.7415322178        0.0000000000
C         2.0084735264       -2.1665712971        0.0000000000
C         2.1982530530       -0.7323926475        0.0000000000
H        -3.0184517729        3.1711750058        0.0000000000
H        -4.5808021162        1.0006735725        0.0000000000
H         0.0459356526        3.4185604166        0.0000000000
H         4.3620788389       -0.7343143267        0.0000000000
H         4.5398281903        1.7365804462        0.0000000000
H         2.5260783490        3.1685301118        0.0000000000
H        -3.8603185860       -1.9865421495        0.0000000000
H        -1.8983113851       -3.5022437962        0.0000000000
H         0.6666213642       -3.8314150238        0.0000000000
H         2.9105686592       -2.7896409131        0.0000000000
