 32

C        -3.6403457797       -1.1824756093        0.0000000000
C        -2.4021422589       -0.4580834725        0.0000000000
C        -2.4309006227        0.9821628571        0.0000000000
C        -3.7174592478        1.6282308034        0.0000000000
C        -4.8648698523        0.9046024733        0.0000000000
C        -4.8268552679       -0.5240186632        0.0000000000
C        -1.2689806689        1.7508861944        0.0000000000
C         0.0002705838        1.1298617614        0.0000000000
C        -0.0000552468       -0.2691872777        0.0000000000
C        -1.1650608487       -1.0807371224        0.0000000000
C         1.2697862972        1.7502982964        0.0000000000
C         2.4313623368        0.9810301734        0.0000000000
C         2.4019402516       -0.4591857192        0.0000000000
C         1.1645575169       -1.0812651640        0.0000000000
C         3.6397928290       -1.1841533104        0.0000000000
C         4.8266013823       -0.5262414079        0.0000000000
C         4.8652763069        0.9023486556        0.0000000000
C         3.7182008564        1.6265019208        0.0000000000
C        -0.6832881687       -2.4686821509        0.0000000000
C         0.6821563690       -2.4689920428        0.0000000000
H         1.3406197484       -3.3354512642        0.0000000000
H        -1.3421440019       -3.3348429696        0.0000000000
H        -1.3323226024        2.8456472251        0.0000000000
H         1.3336830486        2.8450254421        0.0000000000
H         3.5934578272       -2.2792793258        0.0000000000
H         5.7740497613       -1.0751112146        0.0000000000
H         5.8417015419        1.3978083120        0.0000000000
H         3.7465672374        2.7224123793        0.0000000000
H        -3.7453147025        2.7241548172        0.0000000000
H        -5.8410774450        1.4004938115        0.0000000000
H        -5.7745658403       -1.0724355071        0.0000000000
H        -3.5944970157       -2.2776242900        0.0000000000
