 29

C         0.4707953198        3.0298256009        0.0011384165
C        -1.8020977744        2.4390318813        0.0089645866
C        -0.9592008697        3.4969685819        0.0077780495
C        -1.0139718668        1.2065145881        0.0015858291
C         0.3261903340        1.5357212436       -0.0022658125
C         0.9458898886       -0.8159693865       -0.0020162459
C         1.3445467078        0.5368745737       -0.0038233346
C         2.7163792607        0.8665871481       -0.0079480314
C         3.6689087082       -0.1262676435       -0.0080857663
C         3.2794533198       -1.4757888310       -0.0052075357
C         1.9452860376       -1.8132443109       -0.0026096227
C        -1.4476629943       -0.1564748615        0.0016822154
C        -0.4615592876       -1.1649611923       -0.0003053430
C        -0.8755480165       -2.5147055965       -0.0005227140
C        -2.2119936036       -2.8431667245        0.0014575030
C        -3.1882200912       -1.8340433950        0.0043895177
C        -2.8127910555       -0.5097235526        0.0049175852
H         1.0225233413        3.3889892176        0.8893943968
H         1.0155945994        3.3936874909       -0.8895108456
H        -2.8910562033        2.4592306106        0.0145976990
H        -1.2230769486        4.5523720653        0.0113664444
H         3.0073390855        1.9233038823       -0.0107203377
H         4.7337105061        0.1281712112       -0.0104110322
H         4.0457136107       -2.2577863949       -0.0058255210
H         1.6328540350       -2.8688242752       -0.0016575340
H        -0.1043030816       -3.3001681410       -0.0019737157
H        -2.5216033638       -3.8932967420        0.0011797056
H        -4.2480797761       -2.1084232727        0.0061897969
H        -3.5695073569        0.2833000213        0.0077382543
