 23

C        -1.7569833047        1.7164328525       -0.0028296649
C        -3.0924357121       -0.2206268404        0.0008315159
C        -3.1441492672        1.1301539469       -0.0015225013
C        -1.6910256269       -0.6400072158        0.0011706800
C        -0.8843179943        0.4957502291       -0.0007118930
C         0.2304653615       -2.0593035702       -0.0005584009
C        -1.1354118166       -1.9333510766        0.0007645448
C         1.0776438659       -0.9156942620       -0.0007643830
C         0.5232380572        0.3860432338       -0.0003174673
C         1.3847189816        1.5155315611        0.0016359627
C         2.7420428235        1.3459247729        0.0022632507
C         3.3008723438        0.0460424197        0.0008489812
C         2.4923963565       -1.0579244185       -0.0005933951
H        -1.5816178474        2.3476286688       -0.8935548944
H        -1.5813150114        2.3520411413        0.8846561659
H        -3.9265161177       -0.9200032396        0.0031963782
H        -4.0336777619        1.7566886250       -0.0023606833
H         0.6941242210       -3.0524644543       -0.0018390467
H        -1.7924221003       -2.8084797083        0.0011922635
H         0.9375652698        2.5159991995        0.0028617832
H         3.4113625796        2.2123312418        0.0039420407
H         4.3903191506       -0.0629971434        0.0009208683
H         2.9219128714       -2.0662022104       -0.0016013944
