 26

C         2.8191449348       -1.2091837885        0.0000000000
C         3.5055124972       -0.0004808484        0.0000000000
C         2.8194908953        1.2083961764        0.0000000000
C         1.4216982201        1.2241620921        0.0000000000
C         0.6766469452        2.4581724341        0.0000000000
C        -0.6759011782        2.4583417754        0.0000000000
C         1.4213620687       -1.2245476920        0.0000000000
C         0.7161852003       -0.0000925835        0.0000000000
C        -0.6766322050       -2.4581939443        0.0000000000
C         0.6759600765       -2.4583772911        0.0000000000
C        -1.4217017272       -1.2241732168        0.0000000000
C        -0.7161832118        0.0001140033        0.0000000000
C        -1.4213542499        1.2245870966        0.0000000000
C        -2.8191804695        1.2092026759        0.0000000000
C        -3.5055447248        0.0004983388        0.0000000000
C        -2.8195043869       -1.2084220041        0.0000000000
H         3.3722118677       -2.1551770555        0.0000000000
H         4.6007054798       -0.0006875149        0.0000000000
H         3.3727470421        2.1542824457        0.0000000000
H         1.2411472418        3.3976681869        0.0000000000
H        -1.2401260404        3.3980154186        0.0000000000
H        -1.2411618415       -3.3976811996        0.0000000000
H         1.2402396803       -3.3980148843        0.0000000000
H        -3.3721704127        2.1552483481        0.0000000000
H        -4.6007421624        0.0005728488        0.0000000000
H        -3.3728351945       -2.1542649805        0.0000000000
