 35

C         0.0338072985        2.6490539446       -0.0000000001
C         1.0441575241        1.5401782329        0.0000000000
C         0.3710153674        0.2676345194        0.0000000000
C         1.0917716240       -0.8928786969        0.0000000000
C         2.4030278926        1.6275205925        0.0000000000
C         3.1689134663        0.4246385531        0.0000000000
C         2.5152930911       -0.8266081045        0.0000000000
C         3.2942717999       -2.0142583192        0.0000000000
C         4.6620610591       -1.9461780303        0.0000000000
C         5.3153569144       -0.6934496977        0.0000000000
C         4.5877868108        0.4669902884        0.0000000000
C        -1.0730458824        0.5264850675        0.0000000000
C        -1.2712956830        1.9070999328        0.0000000000
C        -2.5561982287        2.4715007819        0.0000000000
C        -3.6437240694        1.6344558510        0.0000000000
C        -2.1854947718       -0.3527281264        0.0000000000
C        -3.4795298560        0.2238910679        0.0000000000
C        -4.6209721587       -0.6261985718        0.0000000000
C        -4.4756994699       -1.9853775673        0.0000000000
C        -3.1842488688       -2.5625462116        0.0000000000
C        -2.0701242981       -1.7697935989        0.0000000000
H         0.1348051685        3.2994123690        0.8886613640
H         0.1348051685        3.2994123689       -0.8886613642
H         0.6002423242       -1.8758681567        0.0000000000
H         2.9151345352        2.5956863855        0.0000000000
H         2.7822415592       -2.9831617750        0.0000000000
H         5.2640412407       -2.8607244999        0.0000000000
H         6.4098181775       -0.6634212153        0.0000000000
H         5.0880818038        1.4419711649        0.0000000000
H        -2.6733831098        3.5597201215        0.0000000000
H        -4.6594232030        2.0466639743        0.0000000001
H        -5.6176479376       -0.1700830586        0.0000000000
H        -5.3524613211       -2.6410564143        0.0000000000
H        -3.0899473394       -3.6534382002       -0.0000000001
H        -1.0686512115       -2.2218269191        0.0000000000
