 24

C        -3.6379169186        0.7139654855        0.0000000000
C        -3.6384515982       -0.7112464737        0.0000000000
C        -2.4676214420       -1.4030090145        0.0000000000
C        -2.4665627157        1.4048409554        0.0000000000
C        -1.2124121349        0.7111746304        0.0000000000
C        -1.2129377100       -0.7103012503        0.0000000000
C        -0.0005134848       -1.4041355884        0.0000000000
C         0.0005188196        1.4041110354        0.0000000000
C         1.2129370441        0.7102795212        0.0000000000
C         1.2124221496       -0.7111921948        0.0000000000
C         2.4665855245       -1.4048412093        0.0000000000
C         3.6379148352       -0.7139378021        0.0000000000
C         3.6384327928        0.7112697242        0.0000000000
C         2.4676019302        1.4030172168        0.0000000000
H        -4.5985966688        1.2391742188        0.0000000000
H        -4.5995287272       -1.2357297741        0.0000000000
H        -2.4579963636       -2.4988442275        0.0000000000
H        -2.4561030343        2.5006671521        0.0000000000
H        -0.0009105168       -2.5010881644        0.0000000000
H         0.0009342928        2.5010610249        0.0000000000
H         2.4561607629       -2.5006660951        0.0000000000
H         4.5986060693       -1.2391274784        0.0000000000
H         4.5995035702        1.2357629348        0.0000000000
H         2.4579652428        2.4988495180        0.0000000000
