 32

C        -0.9221040759       -1.0708507482        0.0000000000
C         0.5317938041       -0.9096960140        0.0000000000
C         1.0666851984        0.4527324709        0.0000000000
C         0.2488383156        1.5349621247        0.0000000000
C        -1.1901798671        1.3959661611        0.0000000000
C        -1.7554547544        0.0876324374        0.0000000000
C         2.5041793029        0.5797250627        0.0000000000
C         3.3378347574       -0.6351379247        0.0000000000
C         2.7926629549       -1.8681386907        0.0000000000
C         1.3596845537       -1.9924875871        0.0000000000
C        -3.1582938876       -0.0592486236        0.0000000000
C        -3.9796390101        1.0978213076        0.0000000000
C        -3.4156191801        2.3481386112        0.0000000000
C        -2.0159293362        2.5034808380        0.0000000000
C        -1.5083667965       -2.3206480197        0.0000000000
C        -2.9108127932       -2.4647536884        0.0000000000
C        -3.7235367692       -1.3625921081        0.0000000000
C         4.7280314522       -0.1750460050        0.0000000000
C         4.7181431235        1.1862770217        0.0000000000
C         3.3344872028        1.6660431775        0.0000000000
H         3.0565245592        2.7178889874        0.0000000000
H         5.5882543129       -0.8400777696        0.0000000000
H         5.5801570349        1.8498045708        0.0000000000
H         0.9263558679       -3.0050579486        0.0000000000
H         3.4056304584       -2.7751659014        0.0000000000
H         0.6658696650        2.5504686715        0.0000000000
H        -1.5868646066        3.5121134812        0.0000000000
H        -4.0497418586        3.2410710845        0.0000000000
H        -5.0687128534        0.9749308594        0.0000000000
H        -4.8143657450       -1.4679527525        0.0000000000
H        -3.3400536741       -3.4722297419        0.0000000000
H        -0.8679526627       -3.2164934544        0.0000000000
