 32

C         3.0358218629       -2.5996567061        0.0000000000
C         4.0857922563       -1.6362010850        0.0000000000
C         3.8063154496       -0.3054854281        0.0000000000
C         1.7358003188       -2.2014200976        0.0000000000
C         1.4010844252       -0.8102923311        0.0000000000
C         2.4504797181        0.1644454481        0.0000000000
C         2.1875218834        1.5426075797        0.0000000000
C         0.8677364866        2.0102794867        0.0000000000
C         0.4235483007        3.3736304241        0.0000000000
C        -0.9115964903        3.6656506145        0.0000000000
C        -1.9299585272        2.6578588768        0.0000000000
C         0.0852965584       -0.3486313676        0.0000000000
C        -0.1409408605        1.0415953575        0.0000000000
C        -1.5471395622        1.3526739271        0.0000000000
C        -1.2415200965       -0.9784029022        0.0000000000
C        -2.2332342466        0.0545326843        0.0000000000
C        -3.5761864783       -0.2622287916        0.0000000000
C        -3.9403507273       -1.6144533956        0.0000000000
C        -2.9799439134       -2.6163437027        0.0000000000
C        -1.6150379659       -2.3077075053        0.0000000000
H         3.2971948362       -3.6628524903        0.0000000000
H         5.1219499765       -1.9902441200        0.0000000000
H         4.6132787495        0.4364786173        0.0000000000
H         0.9076957535       -2.9278069185        0.0000000000
H         3.0187668876        2.2575433980        0.0000000000
H         1.1757812921        4.1697326705        0.0000000000
H        -1.2370842463        4.7118542260        0.0000000000
H        -2.9839190497        2.9526243020        0.0000000000
H        -4.3379606493        0.5236725112        0.0000000000
H        -5.0022612179       -1.8818026472        0.0000000000
H        -3.2909847293       -3.6662289196        0.0000000000
H        -0.8477201232       -3.0953845217        0.0000000000
