 38

C         1.1210138577        1.1688984565        0.0000000000
C         2.3103849765        1.9916423224        0.0000000000
C         1.8172934193        3.3791063306        0.0000000000
C         0.4548215452        3.3716796518        0.0000000000
C        -0.0275296353        1.9806685879        0.0000000000
C        -3.9792572399       -2.7186261824        0.0000000000
C        -2.7401264039       -2.1157474124        0.0000000000
C        -5.0518696263       -0.5623997835        0.0000000000
C        -5.1436516199       -1.9375180336        0.0000000000
C        -3.7913447769        0.0678508562        0.0000000000
C        -2.6207966761       -0.7110670636        0.0000000000
C        -2.4994788789        2.1227212671        0.0000000000
C        -3.7009775348        1.5046745611        0.0000000000
C        -1.2778206220        1.3647596914        0.0000000000
C        -1.3203154870       -0.0618630791        0.0000000000
C        -0.1469592990       -0.8311157068        0.0000000000
C         1.1118082813       -0.2211629349        0.0000000000
C         3.5211127281        1.3902572970        0.0000000000
C         3.5799036525       -0.0595105917        0.0000000000
C         2.4134595926       -0.8607918920        0.0000000000
C         2.5336116913       -2.2614552864        0.0000000000
C         3.7776264292       -2.8577978634        0.0000000000
C         4.9352087850       -2.0687541770        0.0000000000
C         4.8387114037       -0.6925667430        0.0000000000
H         2.4721576098        4.2478940985        0.0000000000
H        -0.2077272678        4.2355017865        0.0000000000
H        -4.0604307030       -3.8104747267        0.0000000000
H        -1.8221839048       -2.7230925138        0.0000000000
H        -5.9584756701        0.0535352817        0.0000000000
H        -6.1232640584       -2.4263574053        0.0000000000
H        -2.4218898007        3.2162469661        0.0000000000
H        -4.6334144092        2.0809766553        0.0000000000
H        -0.2186822803       -1.9323116434        0.0000000000
H         4.4576704981        1.9585102729        0.0000000000
H         1.6182436122       -2.8684018978        0.0000000000
H         3.8657540887       -3.9491562173        0.0000000000
H         5.9180711189       -2.5513806438        0.0000000000
H         5.7469271036       -0.0784969505        0.0000000000
