 38

C         2.1494090041        1.7980314914        0.5790933707
C         2.4208864929        0.4898336848        0.1010300799
C         3.7689769868        0.1789114603       -0.1840207651
C         4.7680524444        1.1820246179       -0.1180207275
C         4.4546233469        2.4515443392        0.2924139888
C         3.1323111325        2.7506341977        0.6714421029
C         4.1496113397       -1.1616855746       -0.4883733992
C         3.2280729393       -2.1566911648       -0.4195476612
C         1.8574949682       -1.8591577959       -0.1577080259
C         1.4153051656       -0.5410454117       -0.0276990720
C         0.9527695147       -2.9663766202       -0.0107525267
C        -0.3627004303       -2.7567519774        0.2094945511
C        -0.8979628604       -1.4260865217        0.1629092505
C        -0.0243281040       -0.2982749982       -0.0308466380
C        -2.2683867600       -1.2102414933        0.2205066643
C        -2.7503499469        0.0989880525        0.0122875889
C        -1.9481427761        1.1992128264       -0.2669178763
C        -0.5611390111        0.9670932127       -0.2900628145
C        -2.6464414959        2.4269378561       -0.4966399218
C        -4.0148042215        2.4611664028       -0.4343954388
C        -4.8157821604        1.3086598665       -0.1556460843
C        -4.1835555820        0.1219452545        0.0661751803
C        -4.5804050750       -1.2690063481        0.3413774988
C        -3.4633508794       -2.0468728884        0.4240585715
H        -5.6145702728       -1.5879029128        0.4521855260
H        -3.4218978160       -3.1177267153        0.6150233041
H        -4.5370381677        3.4085720197       -0.6087405302
H        -5.9058014768        1.4009556065       -0.1323289079
H        -2.0692919302        3.3304324330       -0.7204097054
H         0.0973311144        1.8146919857       -0.5262457084
H        -1.0559769165       -3.5876931474        0.3839551259
H         1.3639993308       -3.9819824446       -0.0507139074
H         3.5176231816       -3.2015450237       -0.5823500021
H         5.1955430711       -1.3735861171       -0.7377706067
H         5.7981442283        0.9216273075       -0.3877836446
H         5.2225020641        3.2298151780        0.3459998970
H         2.8962466436        3.7517703977        1.0472570203
H         1.1307362385        2.0550975428        0.9000420944
