 34

C         0.4730695641        2.4209167213        0.0000000000
C        -0.1972563643        1.1584171966        0.0000000000
C         0.5507321062       -0.0335482749        0.0000000000
C         1.9825277428        0.0449395083        0.0000000000
C         2.6232030786        1.3028289393        0.0000000000
C         1.8287619177        2.4947879543        0.0000000000
C        -0.0699159744       -1.3369085013        0.0000000000
C        -1.4441989123       -1.3994342270        0.0000000000
C        -2.1798871834       -0.1763693977        0.0000000000
C        -1.6278763989        1.0945465665        0.0000000000
C        -2.5529425567        2.1738358305        0.0000000000
C        -3.9063822466        1.9252528112        0.0000000000
C        -4.4492840644        0.6108340686        0.0000000000
C        -3.5819354308       -0.4477478861        0.0000000000
C         2.7693059821       -1.1364272565        0.0000000000
C         2.1089985544       -2.4224500243        0.0000000000
C         0.7640387002       -2.5153519723        0.0000000000
C         4.0288784643        1.3670479460        0.0000000000
C         4.7797887865        0.2080691607        0.0000000000
C         4.1560382941       -1.0427312381        0.0000000000
C        -3.7006346195       -1.9149148583        0.0000000000
C        -2.4549436421       -2.4683005284        0.0000000000
H        -4.6539372477       -2.4392711971        0.0000000000
H        -2.2064356800       -3.5281333501        0.0000000000
H        -4.6059819903        2.7683820447        0.0000000000
H        -5.5341792433        0.4688724432        0.0000000000
H        -2.1575614415        3.1985034671        0.0000000000
H         0.2607263431       -3.4894420877        0.0000000000
H         2.7383483953       -3.3200449094        0.0000000000
H         4.7655249197       -1.9536809962        0.0000000000
H         5.8735093054        0.2638676643        0.0000000000
H         4.5214332980        2.3461140505        0.0000000000
H         2.3409316841        3.4637604607        0.0000000000
H        -0.1527170127        3.3249243066        0.0000000000
