 38

C         1.1417074006       -0.7205825856        0.0000000000
C         2.4149102493       -1.4137168588        0.0000000000
C         3.6914253462       -0.6562024409        0.0000000000
C         3.6869123173        0.6816752030        0.0000000000
C         2.4051270704        1.4302578022        0.0000000000
C         1.1367128613        0.7284262099        0.0000000000
C        -0.0414307231       -1.4050893688        0.0000000000
C        -1.2958339482       -0.7152227223        0.0000000000
C        -1.3007371286        0.7062840790        0.0000000000
C        -0.0511091744        1.4047804010        0.0000000000
C        -2.5047160939       -1.4128031434        0.0000000000
C        -3.7212494565       -0.7231787725        0.0000000000
C        -3.7261562881        0.6975102900        0.0000000000
C        -2.5144027192        1.3955163348        0.0000000000
C        -4.9721691621       -1.4209143205        0.0000000000
C        -6.1462345672       -0.7334378350        0.0000000000
C        -6.1511507211        0.6910505556        0.0000000000
C        -4.9818617792        1.3866057090        0.0000000000
C         2.7206551438       -2.7412917008        0.0000000000
C         4.7642554892       -1.6587134797        0.0000000000
C         4.1849465291       -2.8865435155        0.0000000000
C         2.7016107320        2.7598823294        0.0000000000
C         4.7526978795        1.6916080880        0.0000000000
C         4.1648340825        2.9153418315        0.0000000000
H         2.0335371103       -3.5855944101        0.0000000000
H         4.6858426809       -3.8525449809        0.0000000000
H         5.8234187029       -1.4110142671        0.0000000000
H         5.8135753257        1.4512890457        0.0000000000
H         4.6590130381        3.8847932458        0.0000000000
H        -7.1136901655        1.2129067636        0.0000000000
H        -7.1051451101       -1.2619333150        0.0000000000
H        -4.9583783590       -2.5167129006        0.0000000000
H        -4.9756264902        2.4824733767        0.0000000000
H        -2.5019378219       -2.5097746250        0.0000000000
H        -2.5191847577        2.4924811102        0.0000000000
H        -0.0520574872       -2.5024762055        0.0000000000
H        -0.0693395100        2.5020667321        0.0000000000
H         2.0084772203        3.5992510839        0.0000000000
