 36

C        -5.1040974580        0.6976952747        0.0000000000
C        -5.1009104734       -0.7205930460        0.0000000000
C        -3.9226663092       -1.4111091738        0.0000000000
C        -3.9289644529        1.3934911133        0.0000000000
C        -2.6841071172        0.6998195521        0.0000000000
C        -2.6809282549       -0.7118660240        0.0000000000
C        -1.4485619640       -1.3974594958        0.0000000000
C        -1.4548415722        1.3909565951        0.0000000000
C        -0.2492727004        0.7123810657        0.0000000000
C        -0.2460713905       -0.7134595592        0.0000000000
C         1.0174646606        1.4360374087        0.0000000000
C         2.2341635353        0.7338938119        0.0000000000
C         3.4402478281        1.4538283310        0.0000000000
C         3.4430454566        2.8363475634        0.0000000000
C         2.2341098453        3.5343329454        0.0000000000
C         1.0382466789        2.8406151130        0.0000000000
C         2.2374095101       -0.7238692838        0.0000000000
C         1.0238789705       -1.4314481388        0.0000000000
C         1.0509257855       -2.8359131514        0.0000000000
C         2.2498765223       -3.5242713207        0.0000000000
C         3.4556832919       -2.8208860354        0.0000000000
C         3.4467028167       -1.4384042566        0.0000000000
H        -6.0639223390        1.2245639747        0.0000000000
H        -6.0583602848       -1.2517678393        0.0000000000
H        -3.9109667362       -2.5068031038        0.0000000000
H        -3.9221821205        2.4892250950        0.0000000000
H        -1.4475005077       -2.4994137060        0.0000000000
H        -1.4587311919        2.4929029739        0.0000000000
H         4.3904321140        0.8981434296        0.0000000000
H         4.3908011676        3.3843311978        0.0000000000
H         2.2347503978        4.6291005949        0.0000000000
H         0.0818290121        3.3856029327        0.0000000000
H         0.0969556084       -3.3851757996        0.0000000000
H         2.2554093282       -4.6190255597        0.0000000000
H         4.4058776136       -3.3646280717        0.0000000000
H         4.3943921923       -0.8784764689        0.0000000000
