 38

C        -4.9635661948       -1.4109778815        0.0000000000
C        -3.8869287117       -0.5463695365        0.0000000000
C        -4.0815260163        0.8640807871        0.0000000000
C        -5.3565504345        1.3985423071        0.0000000000
C        -6.4416134984        0.5161033310        0.0000000000
C        -6.2497415463       -0.8601159663        0.0000000000
C        -2.7695719625        1.5153654829        0.0000000000
C        -1.8070134132        0.5463037271        0.0000000000
C        -0.3643318592        0.6363659207        0.0000000000
C         0.3642893683       -0.6363559545        0.0000000000
C        -0.2841359445       -1.8345447074        0.0000000000
C        -1.7211109990       -1.9229257410        0.0000000000
C        -2.4430669059       -0.7852898136        0.0000000000
C         0.2840473340        1.8345470666        0.0000000000
C         1.7210335224        1.9229682152        0.0000000000
C         2.4430608540        0.7853158843        0.0000000000
C         1.8069836833       -0.5462844961        0.0000000000
C         2.7695359656       -1.5153581324        0.0000000000
C         4.0815190525       -0.8640781727        0.0000000000
C         5.3565489283       -1.3985777402        0.0000000000
C         6.4416703905       -0.5161676569        0.0000000000
C         6.2498402014        0.8600798172        0.0000000000
C         4.9636480632        1.4109804731        0.0000000000
C         3.8869541502        0.5464024482        0.0000000000
H         7.4596764606       -0.9197880101        0.0000000000
H         7.1180299135        1.5274358626        0.0000000000
H         4.8148309944        2.4953380144        0.0000000000
H         5.5129247366       -2.4814978921        0.0000000000
H         2.6318534282       -2.5956388820        0.0000000000
H         2.1964768721        2.9094445187        0.0000000000
H        -0.2849023598        2.7719727184        0.0000000000
H        -2.1965894012       -2.9093782985        0.0000000000
H         0.2848742859       -2.7719343063        0.0000000000
H        -2.6316793367        2.5956165973        0.0000000000
H        -5.5129751683        2.4814503056        0.0000000000
H        -7.4596372202        0.9196597956        0.0000000000
H        -7.1179210478       -1.5274782094        0.0000000000
H        -4.8146529051       -2.4953172502        0.0000000000
