 35

C        -2.7476898681       -2.4065426989        0.0000000000
C        -3.7296270499        0.2042711362        0.0000000000
C        -4.5987321766       -0.8623322404        0.0000000000
C        -4.1043603753       -2.1776198835        0.0000000000
C        -2.3337776998       -0.0060683240        0.0000000000
C        -1.8424101164       -1.3221860877        0.0000000000
C        -0.4298309326       -1.5532499285        0.0000000000
C        -1.3985404664        1.0972336213        0.0000000000
C         0.4112447961        3.2276463970        0.0000000000
C        -0.9663602489        3.4786622159        0.0000000000
C        -1.8580057029        2.4302622556        0.0000000000
C        -0.0133264384        0.8412927459        0.0000000000
C         0.4627213100       -0.5217222334        0.0000000000
C         2.3652409325        1.7180003308       -0.0000000001
C         0.8899199642        1.9283985392        0.0000000000
C         2.8119677060        0.2971581151        0.0000000000
C         1.9062781373       -0.7701008678        0.0000000000
C         2.4017076809       -2.0813623445        0.0000000000
C         3.7658415791       -2.3267421154        0.0000000000
C         4.6629128229       -1.2617621039        0.0000000000
C         4.1867256811        0.0410235565        0.0000000000
H        -2.3557610138       -3.4299405226        0.0000000000
H        -4.1036043172        1.2395345265        0.0000000000
H        -5.6803852110       -0.6930738821        0.0000000000
H        -4.8072537145       -3.0170418273       -0.0000000001
H        -0.0684011080       -2.5944308633        0.0000000000
H         1.1134893474        4.0689922434        0.0000000000
H        -1.3272785605        4.5122943069        0.0000000000
H        -2.9437297223        2.6115858577        0.0000000000
H         2.7991908529        2.2279848497        0.8859228665
H         2.7991908529        2.2279848497       -0.8859228667
H         1.6882643085       -2.9197285282        0.0000000001
H         4.1370843898       -3.3565930076        0.0000000000
H         5.7409479735       -1.4521170939        0.0000000000
H         4.8907211356        0.8810298566       -0.0000000001
