 38

C        -4.8424058148       -1.8383067055        0.0000000000
C        -3.5293868765       -1.2896748447        0.0000000000
C        -3.3748713210        0.1174742534        0.0000000000
C        -4.5298071902        0.9462782948        0.0000000000
C        -5.7785335738        0.3890420231        0.0000000000
C        -5.9363020774       -1.0178305501        0.0000000000
C        -2.0597668279        0.6320049763        0.0000000000
C        -0.9450520416       -0.2242809527        0.0000000000
C        -1.1159729930       -1.6175394817        0.0000000000
C        -2.3891731432       -2.1350283563        0.0000000000
C        -1.5957470035        2.0182821713        0.0000000000
C        -0.2322047726        2.0076282938        0.0000000000
C         0.2620466212        0.6133141079        0.0000000000
C         1.5925210601        0.3408388137        0.0000000000
C         2.5431450559        1.4617249926        0.0000000000
C         2.0279087769        2.8240965859        0.0000000000
C         0.7091753270        3.0935945568        0.0000000000
C         3.8880177361        1.2520428045        0.0000000000
C         4.3995074279       -0.0853135849        0.0000000000
C         3.4478757155       -1.2113950090        0.0000000000
C         2.1192760388       -1.0179770880        0.0000000000
C         4.2663759713       -2.4306573927        0.0000000000
C         5.5743874561       -2.0563507864        0.0000000000
C         5.6673418336       -0.5930250180        0.0000000000
H        -2.2515166745        2.8874941679        0.0000000000
H         6.4449049282       -2.7091387107        0.0000000000
H         6.6045941944       -0.0407903711        0.0000000000
H         3.8556253431       -3.4376325585        0.0000000000
H         4.6003571316        2.0853614273        0.0000000000
H         1.4122693732       -1.8598739505        0.0000000000
H         2.7649848565        3.6359486556        0.0000000000
H         0.3228671616        4.1178049578        0.0000000000
H        -2.5416285820       -3.2205502292        0.0000000000
H        -0.2407275318       -2.2807056233        0.0000000000
H        -4.3989151560        2.0344263205        0.0000000000
H        -6.6710074038        1.0233231054        0.0000000000
H        -6.9472864894       -1.4382773448        0.0000000000
H        -4.9590999423       -2.9280228935        0.0000000000
