 38

C        -3.9257359221        0.8750122199        0.6657902011
C        -3.3579469129       -0.3392398213        0.1592661395
C        -1.9966177867       -0.3823400275       -0.2024010485
C        -1.1574784732        0.7702032387        0.0533796747
C        -1.8050426186        1.9891844083        0.3056573982
C        -3.1906148777        2.0134511453        0.6711920029
C        -1.5384086544       -1.5095424404       -0.9244802827
C         0.7376006883       -1.6220124845        0.8907738601
C         1.1011059317       -0.3959873311        0.2726908267
C         0.2783153892        0.7661637678        0.0029103830
C         2.4530206194       -0.2638842832       -0.0025770006
C         3.4338558566       -1.2736907545        0.2071740996
C         3.0396278722       -2.4665385705        0.7570311569
C         1.6761009385       -2.6098424113        1.1090850180
C         4.7186348139       -0.6875550295       -0.2101358627
C         4.5226792328        0.6031203026       -0.5952469604
C         3.0968195082        0.9406867972       -0.4537536076
C         0.9399153610        1.9869670414       -0.2538545579
C         2.3513676477        2.0687259496       -0.5420011786
C         0.2169530199        3.2104023390       -0.1792192523
C        -1.0970460859        3.2149288104        0.1840432314
C        -4.1846758164       -1.4651061973       -0.0570659710
C        -3.6918447051       -2.5751122329       -0.6997429051
C        -2.3659727412       -2.5808718501       -1.1661693758
H         5.6586984498       -1.2352906605       -0.1925494278
H         5.2720186180        1.3073105869       -0.9508198058
H         3.7471391200       -3.2795284601        0.9445069438
H        -0.5105388820       -1.5148679639       -1.3107692329
H         1.3617438663       -3.5456152517        1.5846343407
H         2.7873496062        3.0368762180       -0.8117560454
H         0.7454428984        4.1516344241       -0.3708931369
H        -1.6342280505        4.1567708652        0.3439418795
H        -3.6329928563        2.9706474093        0.9704125148
H        -4.9713771553        0.8701261275        0.9936297792
H        -5.2277733170       -1.4319866925        0.2776818663
H        -4.3293064018       -3.4484741453       -0.8709648289
H        -1.9973240516       -3.4447648995       -1.7290809799
H        -0.3004768018       -1.7734205291        1.2131611342
