 38

C        -5.3615772494       -1.3238381223        0.0000000000
C        -3.9760864820       -1.0586875081        0.0000000000
C        -3.5215896657        0.2718022951        0.0000000000
C        -4.4692100849        1.3170230617        0.0000000000
C        -5.8182444271        1.0422492927        0.0000000000
C        -6.2682439991       -0.2873763811        0.0000000000
C        -2.0976159961        0.5414605069        0.0000000000
C        -1.1958865035       -0.5492207615        0.0000000000
C        -1.6977664814       -1.8952328505        0.0000000000
C        -3.0283025048       -2.1398121854        0.0000000000
C        -1.6115545985        1.8630856914        0.0000000000
C        -0.2543037641        2.1387271168        0.0000000000
C         0.6348250490        1.0695992612        0.0000000000
C         0.1761658396       -0.2653145522        0.0000000000
C         1.3393558192       -1.1623411591        0.0000000000
C         2.4668909833       -0.3983504267        0.0000000000
C         3.8612078383       -0.7153226299        0.0000000000
C         4.8178710189        0.4151418206        0.0000000000
C         4.4294148547        1.7051095493        0.0000000000
C         3.0146409777        2.0296368628        0.0000000000
C         2.1018121846        1.0385916960        0.0000000000
C         4.5673785856       -1.8804099134        0.0000000000
C         6.1541572868       -0.1977288572        0.0000000000
C         5.9992636535       -1.5475164933        0.0000000000
H         6.7846489089       -2.3004242101        0.0000000000
H         7.0804482066        0.3721360368        0.0000000000
H         4.1782815858       -2.8960149364        0.0000000000
H         5.1550765453        2.5250036606        0.0000000000
H         2.7159606628        3.0834106480        0.0000000000
H         1.2745722338       -2.2493997219        0.0000000000
H         0.1150905893        3.1693141438        0.0000000000
H        -2.3424115524        2.6866649473        0.0000000000
H        -3.4139989783       -3.1658347028        0.0000000000
H        -0.9717156412       -2.7166084321        0.0000000000
H        -4.1047987890        2.3557017013        0.0000000000
H        -6.5473481519        1.8590189228        0.0000000000
H        -7.3435587951       -0.4932480713        0.0000000000
H        -5.7070079336       -2.3639732220        0.0000000000
