 37

C         0.6692281843        0.0279195978        0.0000000097
C         0.7843756704        1.4520926305        0.0000000120
C        -0.6221228106        2.0270269559        0.0000000184
C        -1.5150044806        0.7975133811        0.0000000106
C        -0.7042233937       -0.3373049481        0.0000000100
C         5.4142616528       -0.6170041319       -0.0000000150
C         5.5726477729        0.7816012022       -0.0000000163
C         4.4733346060        1.6048055491       -0.0000000087
C         4.1568452306       -1.1688756823       -0.0000000070
C         3.0099229944       -0.3435840146        0.0000000001
C         3.1629159811        1.0673034587       -0.0000000001
C         2.0393489679        1.9728408311        0.0000000076
C         1.6831555863       -0.8973418189        0.0000000058
C        -0.0443216389       -2.6483871926        0.0000000073
C         1.2712623853       -2.2810856434        0.0000000063
C        -1.1141961964       -1.6762203987        0.0000000070
C        -2.4929234078       -1.8761997832        0.0000000031
C        -3.3660129118       -0.7662520366       -0.0000000010
C        -2.8980863991        0.5866460022        0.0000000030
C        -3.8416420445        1.6580408191       -0.0000000040
C        -5.1789201277        1.4017481900       -0.0000000147
C        -5.6536616192        0.0612545561       -0.0000000179
C        -4.7813595756       -0.9845515631       -0.0000000109
H        -0.8037638477        2.6572345637       -0.8892100359
H        -0.8037638503        2.6572345642        0.8892100777
H         6.3014932485       -1.2584486919       -0.0000000209
H         6.5817808249        1.2064700147       -0.0000000230
H         4.5998218323        2.6937624779       -0.0000000094
H         4.0197333778       -2.2577950066       -0.0000000067
H         2.2251110138        3.0519228472        0.0000000076
H        -0.3226125667       -3.7079977565        0.0000000058
H         2.0611206679       -3.0429267701        0.0000000040
H        -2.9055319618       -2.8914992642       -0.0000000004
H        -3.4586771818        2.6847238928       -0.0000000018
H        -5.9065184239        2.2198146824       -0.0000000208
H        -6.7345620239       -0.1137463436       -0.0000000264
H        -5.1492113077       -2.0173030511       -0.0000000141
