 38

C         3.8449287980       -1.5986068618       -0.3792082702
C         4.2179025424       -0.3071547306       -0.5850055352
C         3.0455842623        0.5698769302       -0.4335074342
C         1.9293586100       -0.3011984811       -0.1677261057
C         2.4007039840       -1.6509112154       -0.1028713240
C        -2.2868427338        0.2723390823       -0.8676417948
C        -3.6383466854        0.3855562236       -1.0913131060
C        -4.5254142021       -0.5886175888       -0.5998699663
C        -4.0329318489       -1.6963861707        0.0458952830
C        -1.7566235575       -0.8197199090       -0.1390430668
C        -2.6408948689       -1.8482453821        0.2426772415
C        -2.1213759150       -3.0821580228        0.7490497325
C        -0.7846654279       -3.3072962218        0.7370628190
C        -0.3395227660       -0.9711177529        0.1066685640
C         0.1357493025       -2.2751512768        0.3590387467
C         1.5181768053       -2.6287311941        0.2404132150
C         0.6228184932        0.1003604236        0.0279259302
C         2.8404680428        1.9081737736       -0.4693490821
C         0.4562221062        1.5324081001        0.1981675451
C         1.5326888024        2.4011569239       -0.1135030538
C         1.3553588050        3.7986465895        0.0088844069
C         0.1851299618        4.3184465489        0.5086250353
C        -0.8377072214        3.4540510181        0.9308147397
C        -0.7013248965        2.0931525459        0.7822206014
H         4.4792053168       -2.4823750109       -0.4085905505
H         5.2138881278        0.0636460301       -0.8189257449
H        -1.4949928488        1.4245427967        1.1415114190
H        -4.0328188744        1.2338341039       -1.6603880214
H        -5.6021579580       -0.4672906730       -0.7558261047
H        -4.7090119382       -2.4837978957        0.3981133388
H        -2.8249134053       -3.8502051041        1.0895161101
H        -0.3782060334       -4.2807991822        1.0357711502
H         1.8307791661       -3.6662716484        0.3994880594
H         3.6393395026        2.6186845276       -0.7068514030
H         2.1743654983        4.4657155735       -0.2847953106
H         0.0527994569        5.4010796943        0.6027464714
H        -1.7431645142        3.8703565435        1.3845526546
H        -1.5993165540        1.0239340263       -1.2782638246
