 37

C        -4.1933161915        1.1490988465        0.1504458427
C        -3.4186477175        0.0121681059        0.1430394396
C        -2.0196362031        0.1924519293        0.0911769320
C        -1.3453931461        1.3932032391        0.0136687662
C        -2.1652733427        2.5423423683        0.0188412567
C        -3.5414543974        2.4037074243        0.0935803552
C         0.1037910100        1.3027389621       -0.0697829700
C         0.7905766119        0.0731092565       -0.0320027426
C         0.0299943024       -1.1800260692       -0.0787770109
C        -1.3498348380       -1.0600212341        0.0310375400
C         0.4518488432       -2.5149801985       -0.2870991779
C        -0.4586883950       -3.5590255366       -0.3036134188
C        -1.8495852532       -3.3817191774       -0.1424814753
C        -2.3116406255       -2.0969220131        0.0140968828
C         0.8073215274        2.5326613440       -0.2068342055
C         2.1634386043        2.5583764914       -0.2853127155
C         2.9021490059        1.3507076583       -0.1310688930
C         2.2304553665        0.1212497290        0.0537770599
C         4.3197095679        1.4066641357       -0.1207395733
C         5.0594872598        0.2819823572        0.1300437763
C         4.4011155998       -0.9316233291        0.4097418355
C         3.0325899057       -1.0051733103        0.3774861405
C        -3.6937664568       -1.4792476010        0.1352620874
H        -4.1987786006       -1.8030584245        1.0630167612
H        -4.3440150194       -1.7679637776       -0.7095523553
H         6.1534707334        0.3178700324        0.1335246095
H         4.8120277934        2.3680074265       -0.3080664534
H         2.5528808060       -1.9569024281        0.6399570801
H         4.9952241808       -1.8162575330        0.6621686206
H         2.7043432044        3.4995403505       -0.4356455632
H         0.2082588101        3.4553561356       -0.2623160320
H        -2.5238517764       -4.2425436229       -0.1625289757
H        -0.0863116743       -4.5775436090       -0.4619891254
H         1.5116070301       -2.7423756750       -0.4609076361
H        -1.6845349618        3.5289476675       -0.0430690221
H        -4.1629962692        3.3059681787        0.1009622432
H        -5.2853186553        1.1006841111        0.1910350023
