 38

C         3.1547531303        0.1198754770        0.0000000000
C         3.2967232375       -1.3189126438        0.0000000000
C         4.7494259037       -1.5636259707        0.0000000000
C         5.4098439269       -0.3731110591        0.0000000000
C         4.4341281194        0.7303911048        0.0000000000
C        -5.5567605961        1.4808390560        0.0000000000
C        -5.4062084480        0.1107694839        0.0000000000
C        -3.1637309043        1.7683822295        0.0000000000
C        -4.4286019410        2.3146606191        0.0000000000
C        -2.9873082308        0.3702417470        0.0000000000
C        -4.1190334074       -0.4632089032        0.0000000000
C        -3.9547918033       -1.8935587612        0.0000000000
C        -2.7233962329       -2.4511740845        0.0000000000
C        -1.6647020252       -0.2232365670        0.0000000000
C        -1.5387812119       -1.6314279391        0.0000000000
C        -0.2686713137       -2.2154131480        0.0000000000
C        -0.5108787769        0.5655519429        0.0000000000
C         0.7562672989       -0.0107769422        0.0000000000
C         0.8860295864       -1.4310277292        0.0000000000
C         2.1832557458       -2.0843422084        0.0000000000
C         1.9553772401        0.8062009043        0.0000000000
C         4.5019275092        2.1046562070        0.0000000000
C         3.2897205026        2.8292233371        0.0000000000
C         2.0489543536        2.2152650934        0.0000000000
H         5.1872525070       -2.5597781950        0.0000000000
H         6.4868729387       -0.2175973177        0.0000000000
H        -6.5570204311        1.9261212108        0.0000000000
H        -6.2849447492       -0.5441927411        0.0000000000
H        -2.2680642353        2.4085655776        0.0000000000
H        -4.5595995530        3.4016356009        0.0000000000
H        -4.8570154261       -2.5160483114        0.0000000000
H        -2.5966784465       -3.5399869914        0.0000000000
H        -0.1810533127       -3.3095417798        0.0000000000
H        -0.6140012804        1.6648902415        0.0000000000
H         2.2245300474       -3.1789740120        0.0000000000
H         5.4604427852        2.6319798933        0.0000000000
H         3.3407063509        3.9236300257        0.0000000000
H         1.1280809518        2.8116906209        0.0000000000
