 38

C         4.4987079849        2.5218748045        0.0000000000
C         3.6774082148        1.3082021625        0.0000000000
C         4.6228743586        0.1775418428        0.0000000000
C         5.8949913766        0.6809517077        0.0000000000
C         5.8068684952        2.1412824746        0.0000000000
C         4.1040080653       -1.1537706020        0.0000000000
C         2.7548285022       -1.3504224799        0.0000000000
C         1.8138181335       -0.2350169767        0.0000000000
C         2.3461329812        1.1171871050        0.0000000000
C         0.4580213174       -0.4694270707        0.0000000000
C        -0.0620839439       -1.8283267437        0.0000000000
C         0.8892734976       -2.9245748715        0.0000000000
C         2.2132399659       -2.6976370131        0.0000000000
C        -0.5067134235        0.6067205068        0.0000000000
C        -1.8449432466        0.3768338032        0.0000000000
C        -2.3630377482       -0.9884431990        0.0000000000
C        -1.3996839263       -2.0649209307        0.0000000000
C        -2.7857509235        1.4896999146        0.0000000000
C        -4.1038751279        1.2287662565        0.0000000000
C        -4.6251633817       -0.1519301241        0.0000000000
C        -3.7031077049       -1.2440497269        0.0000000000
C        -5.2808235406        2.1034535139        0.0000000000
C        -6.3902339733        1.3135982094        0.0000000000
C        -5.9918010053       -0.0943851448        0.0000000000
H        -7.4279866709        1.6408003030        0.0000000000
H        -6.6908714651       -0.9277766154        0.0000000000
H        -5.2308300691        3.1897992175        0.0000000000
H         4.0938628113        3.5309522380        0.0000000000
H         6.8290426571        0.1239996032        0.0000000000
H         6.6785658559        2.7923543859        0.0000000000
H        -4.0934434328       -2.2680817821        0.0000000000
H        -2.3938136013        2.5131969511        0.0000000000
H        -1.7840747343       -3.0931376614        0.0000000000
H        -0.1133544198        1.6369329987        0.0000000000
H         0.4882382271       -3.9447537104        0.0000000000
H         2.9278135515       -3.5293188159        0.0000000000
H         4.8067126699       -1.9946306034        0.0000000000
H         1.6368179829        1.9584293775        0.0000000000
