 37

C         5.1305723343       -0.5608342747       -0.0000000001
C         5.2662349264        0.8402004032       -0.0000000001
C         4.1511810010        1.6426722526       -0.0000000001
C         3.8828333679       -1.1351499526        0.0000000000
C         2.7194368978       -0.3307575851        0.0000000000
C         2.8580004069        1.0684587993        0.0000000000
C         1.6933739367        1.8970475511        0.0000000001
C         1.3979596707       -0.9064786766        0.0000000001
C        -0.0303579291       -2.8681591250        0.0000000001
C         1.2182401364       -2.3176685790        0.0000000001
C        -1.1826408414       -2.0361616495        0.0000000000
C        -3.5978502572       -1.8208425566       -0.0000000001
C        -2.4947696519       -2.6110010651        0.0000000000
C        -3.4757061771       -0.3926256654       -0.0000000001
C        -3.2151106309        2.3885601732        0.0000000000
C        -4.4891585898        1.7994448314       -0.0000000001
C        -4.6226865335        0.4303891909       -0.0000000002
C         0.2746037640       -0.0701273254        0.0000000001
C         0.4410135263        1.3551173655        0.0000000001
C        -0.7408960438        2.2668153499        0.0000000002
C        -2.0762878293        1.6044446479        0.0000000001
C        -2.1967993592        0.1951639881        0.0000000000
C        -1.0314948304       -0.6462322859        0.0000000000
H         6.0281583071       -1.1877037311       -0.0000000002
H         6.2677195413        1.2826178657       -0.0000000002
H         4.2494968160        2.7341474022       -0.0000000001
H         3.7615761056       -2.2291463969        0.0000000000
H         1.8288428572        2.9857619536        0.0000000001
H        -0.1624465071       -3.9561302623        0.0000000001
H         2.1181185840       -2.9520274110        0.0000000001
H        -4.6035771124       -2.2564633002       -0.0000000001
H        -2.5840727158       -3.7034095480        0.0000000000
H        -3.1274638744        3.4809115571        0.0000000001
H        -5.3760840108        2.4415575884       -0.0000000002
H        -5.6152521067       -0.0338518944       -0.0000000002
H        -0.6762603483        2.9335362863        0.8857297483
H        -0.6762603483        2.9335362864       -0.8857297479
