 34

C         2.6174564817        2.6075452463        0.0000000000
C         1.5695926010        1.6330876892        0.0000000000
C         2.0450389557        0.3249051692        0.0000000000
C         3.4012097952       -0.1433761844        0.0000000000
C         4.3578014214        0.8315169073        0.0000000000
C         3.9302434038        2.2002832730        0.0000000000
C         0.1589987937        1.7835158504        0.0000000000
C        -0.6936234986        0.6716662430        0.0000000000
C        -0.1622146299       -0.6477031577        0.0000000000
C         1.1982048532       -0.7817085696        0.0000000000
C        -0.9285316491       -1.8682852498        0.0000000000
C        -0.1662637052       -3.1206008404        0.0000000000
C         1.1884545388       -3.2013202574        0.0000000000
C         1.9958963326       -1.9994328415        0.0000000000
C        -2.1433394927        0.7463436674        0.0000000000
C        -2.9035877179       -0.4440969207        0.0000000000
C        -2.2833604274       -1.7519283746        0.0000000000
C        -4.3096061379       -0.3504457062        0.0000000000
C        -4.9339607701        0.8802922356        0.0000000000
C        -4.1754625553        2.0578392864        0.0000000000
C        -2.7975355822        1.9903595437        0.0000000000
C         3.3192991679       -1.6286900342        0.0000000000
H         4.1926500419       -2.2762771897        0.0000000000
H        -4.6803067279        3.0292619143        0.0000000000
H        -6.0271862034        0.9418968746        0.0000000000
H        -4.9076608280       -1.2692363088        0.0000000000
H        -2.1777669219        2.9002597610        0.0000000000
H        -2.9319970405       -2.6359663854        0.0000000000
H        -0.7639483348       -4.0401118932        0.0000000000
H         1.6950882958       -4.1716911683        0.0000000000
H        -0.2943620533        2.7864995888        0.0000000000
H         5.4279179114        0.6037982639        0.0000000000
H         4.7175615594        2.9630792147        0.0000000000
H         2.3600148711        3.6716960182        0.0000000000
