 34

C         0.0471509526        2.5321349696        0.0000000000
C        -0.5123553650        1.2128385986        0.0000000000
C         0.3926861485        0.1511622677        0.0000000000
C         1.8078018209        0.3101378751        0.0000000000
C         2.3221698643        1.6198103355        0.0000000000
C         1.3967402515        2.7212435550        0.0000000000
C        -0.1023867374       -1.1546947323        0.0000000000
C        -1.4468090211       -1.4894172953        0.0000000000
C        -2.3935285779       -0.4317246173        0.0000000000
C        -1.9176183560        0.9115551312        0.0000000000
C         2.6513362095       -0.8367774368        0.0000000000
C         2.0841752392       -2.1823738290        0.0000000000
C         0.7404920574       -2.3359027488        0.0000000000
C        -2.8661794235        1.9666071640        0.0000000000
C        -4.2107091200        1.7052007663        0.0000000000
C        -4.6774555577        0.3726241059        0.0000000000
C        -3.7908330775       -0.6719982432        0.0000000000
C         3.7188764055        1.7846697401        0.0000000000
C         4.5451150269        0.6749997705        0.0000000000
C         4.0260174320       -0.6255749803        0.0000000000
C        -0.2186475877       -3.4557604525        0.0000000000
C        -1.4919040836       -2.9606941280        0.0000000000
H        -2.4179328271       -3.5328055333        0.0000000000
H         0.0795198744       -4.5018293155        0.0000000000
H         2.7712891070       -3.0354767111        0.0000000000
H        -2.4808632302        2.9982966437        0.0000000000
H        -4.9355910252        2.5256315109        0.0000000000
H        -5.7561953416        0.1851526549        0.0000000000
H        -4.1432568961       -1.7098455240        0.0000000000
H         4.7116723572       -1.4807227032        0.0000000000
H         5.6321420796        0.8112052905        0.0000000000
H         4.1444187329        2.7943970399        0.0000000000
H         1.8131908466        3.7351690053        0.0000000000
H        -0.6583053807        3.3770868738        0.0000000000
