 36

C         6.0798467553       -0.7182602354        0.0000000000
C         6.0801664089        0.7155700787        0.0000000000
C         4.9161920308        1.4065843476        0.0000000000
C         4.9155583881       -1.4087480911        0.0000000000
C         3.6487793736       -0.7189443434        0.0000000000
C         3.6490982770        0.7173576674        0.0000000000
C         2.4567490877        1.4064234543        0.0000000000
C         2.4561254290       -1.4074746505        0.0000000000
C         1.2156886852       -0.7143397156        0.0000000000
C         1.2160004322        0.7138382233        0.0000000000
C         0.0003526698        1.4051494323        0.0000000000
C        -0.0002580647       -1.4051169171        0.0000000000
C        -1.2161148115       -0.7137749412        0.0000000000
C        -1.2158104430        0.7143402927        0.0000000000
C        -2.4560642998        1.4074702428        0.0000000000
C        -2.4566575981       -1.4063770644        0.0000000000
C        -3.6491329287       -0.7172969229        0.0000000000
C        -3.6488365713        0.7188932597        0.0000000000
C        -4.9155397808        1.4087002172        0.0000000000
C        -6.0798473492        0.7181751559        0.0000000000
C        -6.0801428356       -0.7155804381        0.0000000000
C        -4.9161150824       -1.4065816781        0.0000000000
H         7.0435694201       -1.2378520153        0.0000000000
H         7.0441211219        1.2347322656        0.0000000000
H         4.9061488289        2.5024931779        0.0000000000
H         4.9050181414       -2.5046521678        0.0000000000
H         2.4506676480        2.5034762677        0.0000000000
H         2.4495488715       -2.5045226809        0.0000000000
H         0.0004380233        2.5022673923        0.0000000000
H        -0.0006507873       -2.5022335477        0.0000000000
H        -2.4497221686        2.5045209811        0.0000000000
H        -2.4507799647       -2.5034275568        0.0000000000
H        -4.9051003594        2.5046045494        0.0000000000
H        -7.0435377099        1.2378281977        0.0000000000
H        -7.0440475417       -1.2348338820        0.0000000000
H        -4.9061232744       -2.5024887833        0.0000000000
