 38

C        -1.6035628953        1.2662306130       -0.0228950417
C        -1.0230252765        2.5883552710        0.0580869739
C        -2.1435929821        3.5376529664       -0.0266543160
C        -3.3079462130        2.8505672316       -0.1595559532
C        -3.0270676547        1.4065167623       -0.1525878934
C         5.0222932955       -1.6678866787       -0.2676548052
C         5.5847301483       -0.3862375810       -0.0203347950
C         4.7800949169        0.7004335612        0.1530993520
C         3.6701658118       -1.8317097332       -0.3278700169
C         2.7987233695       -0.7148716897       -0.1407708918
C         3.3599514927        0.5615174206        0.0904879597
C         2.5030683794        1.6643791047        0.2247075000
C         1.4017569620       -0.8635999017       -0.1786298115
C         0.5410399527        0.2073133409        0.0221752981
C         1.1222719121        1.5146361810        0.1676856849
C         0.3127309368        2.7154149653        0.1966359489
C        -0.9142699013        0.0777797424        0.0248790103
C        -3.7945244906        0.2919425557       -0.2428785061
C        -1.7435018946       -1.1099944714        0.0683394151
C        -3.1463482358       -0.9839786405       -0.1174558294
C        -3.9621546846       -2.1420518418       -0.1350539045
C        -3.4260092289       -3.3859864381        0.0817229015
C        -2.0524503394       -3.5104089114        0.3519667514
C        -1.2406896602       -2.4024556548        0.3513598487
H        -2.0136456874        4.6174930141        0.0120877220
H        -4.3112694914        3.2617085209       -0.2533943501
H         5.6949990579       -2.5202062172       -0.4088810733
H         6.6742335801       -0.2886423669        0.0272681745
H         5.2030708572        1.6935857122        0.3414160617
H         3.2295973768       -2.8169140249       -0.5183414102
H         2.9392763390        2.6624382908        0.3611527779
H         1.0073414746       -1.8668164174       -0.3921724920
H         0.8016262071        3.6898013388        0.3032838639
H        -4.8799172352        0.3395409844       -0.3813791272
H        -5.0376305037       -2.0290359754       -0.3164316189
H        -4.0587074739       -4.2790876715        0.0637375484
H        -1.6353567770       -4.4990991993        0.5705443500
H        -0.1806850565       -2.5317275980        0.6053396689
