 38

C        -2.6671335933       -1.6915285384        0.1999868707
C        -1.2953188091       -1.7200524482        0.0397830016
C        -0.6336897971       -2.9776784061       -0.0731115137
C        -1.3349022888       -4.1676947542       -0.0787118707
C        -2.7263594824       -4.1151957913        0.0489197517
C        -3.3762827739       -2.8985427647        0.1962517887
C         0.8082540386       -2.7465129478       -0.1295616984
C         1.0355256106       -1.4071409761       -0.0535013484
C        -0.2608716399       -0.6732873209        0.0056289587
C        -0.2609194779        0.6732701297       -0.0056283491
C         1.0354054902        1.4072394692        0.0535032049
C         2.3022667451        0.7040877845        0.0344483223
C         2.3023331550       -0.7038894908       -0.0344475074
C         3.5183382283        1.3913923681        0.0718716926
C         4.7197788311        0.6947505734        0.0369231723
C         4.7198490778       -0.6943688015       -0.0369263326
C         3.5184815896       -1.3911033959       -0.0718730551
C         0.8080116218        2.7465948331        0.1295653237
C        -0.6339473060        2.9776227532        0.0731130008
C        -1.3352700473        4.1675906890        0.0787134977
C        -2.7267058524        4.1149719643       -0.0489186457
C        -3.3765270358        2.8982504419       -0.1962542784
C        -2.6672823840        1.6913059566       -0.1999904584
C        -1.2954619491        1.7199470149       -0.0397835388
H         1.5438381713       -3.5467649362       -0.2061917744
H        -4.4651169942        2.8763430029       -0.3146126755
H        -3.3045436999        5.0450154279       -0.0419610976
H        -0.8144863259        5.1253673931        0.1731276914
H        -3.2083456505        0.7499863619       -0.3489976376
H         1.5436077156        3.5468322350        0.2061965096
H         3.5230902208        2.4863064726        0.1278381742
H         5.6681120765        1.2411095849        0.0667954499
H         5.6681593546       -1.2407649840       -0.0668054745
H         3.5227894102       -2.4860243131       -0.1278390485
H        -0.8141659398       -5.1254982010       -0.1731171971
H        -3.3040919741       -5.0453048597        0.0419585490
H        -4.4648732076       -2.8766773926        0.3146121723
H        -3.2082920042       -0.7502632255        0.3489935145
