 38

C        -3.2049510092       -0.2610378404        0.0000000000
C        -1.8165812069        0.2197819261        0.0000000000
C        -1.9125902808        1.6939531107        0.0000000000
C        -3.2177104020        2.0859147190        0.0000000000
C        -4.0528628910        0.8854844045        0.0000000000
C        -0.6126419888       -0.4092293039        0.0000000000
C         0.6126742290        0.4092488274        0.0000000000
C         0.4864682216        1.8579797823        0.0000000000
C        -0.7079034978        2.4785420788        0.0000000000
C         1.8165782627       -0.2197615287        0.0000000000
C         1.9125840211       -1.6939181553        0.0000000000
C         0.7079191210       -2.4785387111        0.0000000000
C        -0.4864715725       -1.8579670889        0.0000000000
C         3.2049832551        0.2609927196        0.0000000000
C         4.0528628657       -0.8855516713        0.0000000000
C         3.2177182950       -2.0858798537        0.0000000000
C         3.7597440192        1.5275348100        0.0000000000
C         5.1530750751        1.6504211556        0.0000000000
C         5.9736556493        0.5301073898        0.0000000000
C         5.4292296878       -0.7574599832        0.0000000000
C        -3.7597516901       -1.5275896854        0.0000000000
C        -5.1531048217       -1.6504092877        0.0000000000
C        -5.9736451377       -0.5300685466        0.0000000000
C        -5.4291969700        0.7574739830        0.0000000000
H        -5.6011750032       -2.6496731515        0.0000000000
H        -7.0616294970       -0.6538960886        0.0000000000
H        -6.0747989716        1.6409801171        0.0000000000
H        -3.1246408519       -2.4233699287        0.0000000000
H        -3.6089331077        3.1016528370        0.0000000000
H        -0.7963922872        3.5698890183        0.0000000000
H         1.4172036192        2.4434968019        0.0000000000
H         0.7964364129       -3.5698868492        0.0000000000
H        -1.4172355967       -2.4434767639        0.0000000000
H         3.6079805516       -3.1019903710        0.0000000000
H         3.1245867169        2.4232647705        0.0000000000
H         5.6011168374        2.6496930247        0.0000000000
H         7.0616382746        0.6539864360        0.0000000000
H         6.0748756611       -1.6409466940        0.0000000000
