 35

C        -2.1875539693        2.5303135668        0.0000000000
C        -3.5943915217        2.4250259008        0.0000000000
C        -4.1968728558        1.1960250487        0.0000000000
C        -2.0015616790        0.1155136301        0.0000000000
C        -3.4092224085        0.0144564287        0.0000000000
C        -4.0194845731       -1.2676818914        0.0000000000
C        -3.2446060250       -2.3958330190        0.0000000000
C        -1.8380512180       -2.2982114708        0.0000000000
C        -1.2090248269       -1.0712762803        0.0000000000
C         2.4025712016       -2.0794238557        0.0000000000
C         1.0407258525       -2.1383025349        0.0000000000
C         0.2514158449       -0.9540909481        0.0000000000
C         0.8691887832        0.2823112628        0.0000000000
C         0.0830694185        1.5506426795        0.0000000000
C         2.3001092472        0.3654085497        0.0000000000
C         3.0626508024       -0.8212039223        0.0000000000
C         4.4814525439       -0.7549245806        0.0000000000
C         5.1178756222        0.4562647372        0.0000000000
C         4.3625801973        1.6497416140        0.0000000000
C         2.9943303239        1.6076993412        0.0000000000
C        -1.3986957910        1.4025515598        0.0000000000
H        -1.7268122821        3.5245329100        0.0000000000
H        -4.1956463059        3.3400930713        0.0000000000
H        -5.2888457257        1.1052242732        0.0000000000
H        -5.1131181899       -1.3354524253        0.0000000000
H        -3.7067742660       -3.3885429462        0.0000000000
H        -1.2385671785       -3.2210720156        0.0000000000
H         3.0043082429       -2.9953888506        0.0000000000
H         0.5253979205       -3.1110062563        0.0000000000
H         0.3748165674        2.1511939437        0.8884267237
H         0.3748165674        2.1511939436       -0.8884267238
H         5.0540470928       -1.6894650691        0.0000000000
H         6.2111134984        0.5141217070        0.0000000001
H         4.8871484226        2.6110016358        0.0000000000
H         2.4276181464        2.5462602039        0.0000000000
