 34

C        -4.9901925048       -0.1399235550        0.0000000000
C        -4.6394426382       -1.4817203535        0.0000000000
C        -3.2959478705       -1.8786901970        0.0000000000
C        -4.0131616544        0.8638460402        0.0000000000
C        -2.6861000371        0.4874488162        0.0000000000
C        -2.3230154679       -0.9011373229        0.0000000000
C        -1.4571055970        1.2946400619        0.0000000000
C         0.2101503140        3.0344908974        0.0000000000
C        -1.1382866993        2.6455936362        0.0000000000
C         1.2577606458        2.1033446470        0.0000000000
C         3.6050582856        1.4474833487        0.0000000000
C         2.6641066963        2.4251074259        0.0000000000
C         3.2646139534        0.0416406972        0.0000000000
C         2.4650843498       -2.6598234337        0.0000000000
C         3.8121988325       -2.3097442249        0.0000000000
C         4.2193235112       -0.9790081138        0.0000000000
C        -0.4003255471        0.3657422288        0.0000000000
C        -0.8557422877       -1.0070005787        0.0000000000
C         0.0607707100       -2.0056672189        0.0000000000
C         1.4756974963       -1.6708995346        0.0000000000
C         1.9015850032       -0.3179847162        0.0000000000
C         0.9336667318        0.7293329313        0.0000000000
H        -6.0477790537        0.1441829494        0.0000000000
H        -5.4225388281       -2.2471686132        0.0000000000
H        -3.0253491888       -2.9392183647        0.0000000000
H        -4.2958066892        1.9212457109        0.0000000000
H         0.4542469094        4.1029477209        0.0000000000
H        -1.9282681829        3.4035694799        0.0000000000
H         4.6710047547        1.7039188337        0.0000000000
H         2.9503767158        3.4827142681        0.0000000000
H         2.1758775645       -3.7169028854        0.0000000000
H         4.5698564376       -3.1009928665        0.0000000000
H         5.2860900363       -0.7291523023        0.0000000000
H        -0.2294783547       -3.0618891771        0.0000000000
