 38

C         3.2908762735        1.7967601136        0.0000000000
C         3.0752386337        0.4081625762        0.0000000000
C         4.1822444656       -0.4570682405        0.0000000000
C         5.4821970575        0.0761034485        0.0000000000
C         5.6744010818        1.4447061299        0.0000000000
C         4.5741245996        2.3084755372        0.0000000000
C         3.9777543583       -1.8877201635        0.0000000000
C         2.7371124549       -2.4132108285        0.0000000000
C         1.5626550237       -1.5677450336        0.0000000000
C         1.7277596327       -0.1439454826        0.0000000000
C         0.3007625408       -2.1180168645        0.0000000000
C        -0.8626727774       -1.3009590902        0.0000000000
C        -0.6907609580        0.1219281591        0.0000000000
C         0.6159393446        0.6681015170        0.0000000000
C        -2.1409712309       -1.9031109080        0.0000000000
C        -3.2890857195       -1.1142228095        0.0000000000
C        -3.0919960573        0.2723856739        0.0000000000
C        -1.8472188455        0.9147735282        0.0000000000
C        -4.6615022583       -1.5397469330        0.0000000000
C        -5.6694217622       -0.6186632056        0.0000000000
C        -5.4393759330        0.7992182282        0.0000000000
C        -4.1557312753        1.2446754450        0.0000000000
C        -3.4804468402        2.5526270609        0.0000000000
C        -2.1301901348        2.3578706400        0.0000000000
H        -4.0102901352        3.5026066595        0.0000000000
H        -1.3546930399        3.1215393358        0.0000000000
H        -6.2942686139        1.4822090591        0.0000000000
H        -6.7114091139       -0.9576356250        0.0000000000
H        -4.8769855794       -2.6136381449        0.0000000000
H        -2.2244545461       -2.9963642974        0.0000000000
H         0.1782633920       -3.2087608517        0.0000000000
H         0.7407301449        1.7632429600        0.0000000000
H         2.5837014638       -3.4987177493        0.0000000000
H         4.8652887177       -2.5310342078        0.0000000000
H         6.3424736014       -0.6029213687        0.0000000000
H         6.6883515544        1.8578123422        0.0000000000
H         4.7336003380        3.3916260847        0.0000000000
H         2.4153248944        2.4643051652        0.0000000000
