 37

C        -1.4536792631        0.1938979303       -0.0000000003
C        -1.2824374840        1.6221703131       -0.0000000004
C        -2.6654290008        2.2516323603       -0.0000000012
C        -3.6122183362        1.0643940615       -0.0000000004
C        -2.8289308130       -0.1190282618       -0.0000000002
C         5.6769583164       -0.9965726137       -0.0000000005
C         5.8889376297        0.4086268240        0.0000000003
C         4.8309695495        1.2683191059        0.0000000008
C         4.4122988521       -1.5055582342       -0.0000000007
C         3.2822784430       -0.6318662620       -0.0000000001
C         3.4928294955        0.7677972647        0.0000000005
C         2.3882359742        1.6366163048        0.0000000008
C         1.9695688236       -1.1328381993       -0.0000000002
C         0.8808983799       -0.2745794837        0.0000000000
C         1.0879408192        1.1468896331        0.0000000003
C        -0.0168804076        2.0945039485        0.0000000001
C        -0.4798895398       -0.7742133375       -0.0000000001
C        -2.2823024633       -2.4424640145        0.0000000001
C        -0.9434656261       -2.1296949330       -0.0000000001
C        -3.2930848721       -1.4266479202        0.0000000002
C        -4.9715527824        0.9033546312        0.0000000001
C        -5.4941486728       -0.4210233120        0.0000000007
C        -4.7075564094       -1.5532555547        0.0000000006
H        -2.8181839932        2.8891038483       -0.8892336647
H        -2.8181839928        2.8891038472        0.8892336605
H         6.5470369539       -1.6612126920       -0.0000000010
H         6.9164184734        0.7868834520        0.0000000004
H         4.9854765245        2.3532226498        0.0000000013
H         4.2389093878       -2.5875557426       -0.0000000012
H         2.5646008756        2.7198520126        0.0000000011
H         1.8038013984       -2.2188502532       -0.0000000006
H         0.2107535764        3.1655782573        0.0000000002
H        -2.6026446586       -3.4899758771        0.0000000002
H        -0.1916313936       -2.9289322778       -0.0000000001
H        -5.6560462358        1.7565150065        0.0000000001
H        -6.5842217742       -0.5334889835        0.0000000011
H        -5.1594144394       -2.5503819232        0.0000000010
