 36

C        -3.2773013148       -2.5836632802       -0.5506431129
C        -1.9742418469       -2.5853209720       -1.0787651948
C        -1.1398065280       -1.5120108626       -0.8757917606
C        -3.7411013348       -1.4777147106        0.1190513179
C        -2.9083471884       -0.3491057683        0.2981172637
C        -1.5678857858       -0.3841039861       -0.1350352585
C        -2.7210223301        1.9985618331        0.8243325750
C        -3.4521021817        0.8574862871        0.8459669832
C        -1.3591429816        1.9850002855        0.3794064579
C        -0.7220200389        0.7720988739        0.0765547150
C         0.6115313492        3.2293249813       -0.2414022836
C        -0.6693898390        3.2191335184        0.2239876577
C         1.3238592792        2.0070500320       -0.3887023807
C         0.7086326189        0.7844948776       -0.0796055417
C         3.4379287638        0.9156996922       -0.8459652883
C         2.6860635460        2.0432282675       -0.8314901504
C         2.9149691321       -0.2982697487       -0.2941001490
C         1.5747982469       -0.3555044233        0.1377617159
C         1.1657129384       -1.4886640386        0.8810742513
C         2.0180825508       -2.5474692393        1.0863424800
C         3.3214558853       -2.5243147610        0.5599078845
C         3.7670316413       -1.4115605318       -0.1111287531
H        -3.9199816989       -3.4579972523       -0.6952168451
H        -1.6301232796       -3.4486620431       -1.6577601765
H         0.1547797942       -1.5092611295        1.3089627441
H        -4.7661728917       -1.4485875154        0.5057829734
H        -3.1491263118        2.9503337690        1.1595560135
H        -4.4783579815        0.8464309887        1.2299657983
H         1.1244155278        4.1722801875       -0.4625247382
H        -1.1994738616        4.1539804332        0.4388601252
H         4.4653179285        0.9213649054       -1.2270533802
H         3.0971097425        3.0011652170       -1.1704992480
H        -0.1292013500       -1.5171428506       -1.3045247018
H         1.6867084504       -3.4157148463        1.6654408705
H         3.9791899517       -3.3870509746        0.7064377973
H         4.7922471330       -1.3662274834       -0.4959201715
