 36

C         5.4411095493       -1.3472997453        0.0000000000
C         5.8199295433        0.0237397219        0.0000000000
C         4.8732037861        1.0032537864        0.0000000000
C         4.1258055686       -1.7019067664        0.0000000000
C         3.1060739495       -0.6995400766        0.0000000000
C         3.4835814737        0.6664673432        0.0000000000
C         2.4907236001        1.6570520943        0.0000000000
C         1.7463749487       -1.0420764932        0.0000000000
C         0.7604233973       -0.0605641569        0.0000000000
C         1.1439451801        1.3097217270        0.0000000000
C         0.1237769713        2.3245541132        0.0000000000
C        -1.1864528309        1.9906521175        0.0000000000
C        -0.6502795489       -0.3964645163        0.0000000000
C        -1.6063511058        0.6156087609        0.0000000000
C        -2.3868897528       -2.0922936539        0.0000000000
C        -1.0673963152       -1.7610425399        0.0000000000
C        -3.3881967369       -1.0756049074        0.0000000000
C        -3.0040378144        0.2789135547        0.0000000000
C        -4.0133899392        1.2744405045        0.0000000000
C        -5.3399418885        0.9270814953        0.0000000000
C        -5.7200783678       -0.4307503234        0.0000000000
C        -4.7642377207       -1.4143270578        0.0000000000
H         6.2260707903       -2.1106277169        0.0000000000
H         6.8854338374        0.2757817650        0.0000000000
H         5.1556127828        2.0620773143        0.0000000000
H         3.8248075197       -2.7555656801        0.0000000000
H         2.7834031414        2.7143759205        0.0000000000
H         1.4491618907       -2.1030962429        0.0000000000
H         0.4384365309        3.3745363230        0.0000000000
H        -1.9720413011        2.7619262095        0.0000000000
H        -2.7029126887       -3.1417214489        0.0000000000
H        -0.2873855362       -2.5380084581        0.0000000000
H        -3.7047267580        2.3308859896        0.0000000000
H        -6.1150206860        1.7004036422        0.0000000000
H        -6.7839071001       -0.6894983298        0.0000000000
H        -5.0504301657       -2.4722263949        0.0000000000
