 38

C        -4.1994169938       -2.1879674430        0.0000000000
C        -2.9639249814       -1.5701501020        0.0000000000
C        -2.8472116472       -0.1483096584        0.0000000000
C        -3.9873214306        0.6331267189        0.0000000000
C        -5.2363836305        0.0019777416        0.0000000000
C        -5.3424546396       -1.3817859479        0.0000000000
C        -1.4128871358        0.1760400537        0.0000000000
C        -0.7198110585       -1.1279014332        0.0000000000
C         0.7090046195       -1.1347310067        0.0000000000
C         1.4145024450        0.1625390578        0.0000000000
C         0.7401573470        1.3478979777        0.0000000000
C        -0.7272493756        1.3549050642        0.0000000000
C         1.4179009811        2.6286459170        0.0000000000
C         0.7373528440        3.7926884054        0.0000000000
C        -0.7010959447        3.7995631981        0.0000000000
C        -1.3927336278        2.6420695171        0.0000000000
C        -1.6210246036       -2.1508598539        0.0000000000
C         1.6004119426       -2.1662402888        0.0000000000
C         2.9488000522       -1.5983671914        0.0000000000
C         4.1783187045       -2.2279655361        0.0000000000
C         5.3289983434       -1.4327517359        0.0000000000
C         5.2361602697       -0.0480507562        0.0000000000
C         3.9932009939        0.5950142840        0.0000000000
C         2.8456691496       -0.1754844188        0.0000000000
H        -1.4160093800       -3.2198144688        0.0000000000
H         6.3136470632       -1.9117510222        0.0000000000
H         6.1494518449        0.5562342765        0.0000000000
H         3.9408255310        1.6916462121        0.0000000000
H         4.2498251906       -3.3198788606        0.0000000000
H         1.3852307798       -3.2331951449        0.0000000000
H         2.5171874609        2.6254691746        0.0000000000
H         1.2602907533        4.7547329346        0.0000000000
H        -1.2148087508        4.7665643956        0.0000000000
H        -2.4920010358        2.6493634648        0.0000000000
H        -3.9244315216        1.7292048670        0.0000000000
H        -6.1438550080        0.6149664146        0.0000000000
H        -6.3316333371       -1.8513594907        0.0000000000
H        -4.2813677258       -3.2791475124        0.0000000000
