 38

C         3.4252583300        1.9173378880        0.0000000000
C         3.0255413610        0.5690469551        0.0000000000
C         4.0145605659       -0.4299204546        0.0000000000
C         5.3734345414       -0.0701399520        0.0000000000
C         5.7435898609        1.2606704784        0.0000000000
C         4.7636333885        2.2586295437        0.0000000000
C         3.6364939585       -1.8239039623        0.0000000000
C         2.3398394425       -2.1912766051        0.0000000000
C         1.2842430921       -1.2079549240        0.0000000000
C         1.6137802366        0.1989818228        0.0000000000
C        -0.0459557010       -1.5649660703        0.0000000000
C        -1.0305508584       -0.5316383305        0.0000000000
C        -0.7448771504        0.8355452596        0.0000000000
C         0.6344634248        1.1779159729        0.0000000000
C        -1.8528512535        1.7020510264        0.0000000000
C        -3.1528358196        1.1854635803        0.0000000000
C        -3.4179094605       -0.2265363077        0.0000000000
C        -2.3290379935       -1.0901267276        0.0000000000
C        -4.7747863603       -0.6846879203        0.0000000000
C        -5.8038784046        0.2024492154        0.0000000000
C        -5.5499175859        1.6064328131        0.0000000000
C        -4.2770542777        2.0806147807        0.0000000000
C        -2.1389287585       -2.5474201046        0.0000000000
C        -0.8026844154       -2.8259725992        0.0000000000
H        -2.9604356518       -3.2612936954        0.0000000000
H        -0.3354483254       -3.8088798204        0.0000000000
H        -6.4033256283        2.2924400860        0.0000000000
H        -6.8430165707       -0.1426429892        0.0000000000
H        -4.9534014140       -1.7661004973        0.0000000000
H        -4.0809482902        3.1591867213        0.0000000000
H        -1.6935074627        2.7868699044        0.0000000000
H         0.9243193832        2.2405054299        0.0000000000
H         2.0467018887       -3.2478825722        0.0000000000
H         4.4372246811       -2.5727349585        0.0000000000
H         6.1377217114       -0.8558308921        0.0000000000
H         6.8025595923        1.5385780848        0.0000000000
H         5.0614095864        3.3122664345        0.0000000000
H         2.6511152162        2.6997955121        0.0000000000
