 36

C         1.9142176265       -0.2799967367        0.0000000000
C         2.2287744183       -1.6544587073        0.0000000000
C         3.5957292839       -2.0103938032        0.0000000000
C         4.5655420761       -1.0293812823        0.0000000000
C         4.2375784241        0.3372575781        0.0000000000
C         2.9108940387        0.7413251438        0.0000000000
C         0.5462525900        0.0820417208        0.0000000000
C        -0.4961503226       -0.8418822463        0.0000000000
C        -0.1579008171       -2.2330474631        0.0000000000
C         1.1677427721       -2.6139361448        0.0000000000
C        -1.8429594583       -0.3668398197        0.0000000000
C        -2.8893800348       -1.3279872908        0.0000000000
C        -2.5432628822       -2.7365902377        0.0000000000
C        -1.2635869837       -3.1680737336        0.0000000000
C        -2.1503225477        1.0268663930        0.0000000000
C        -3.5030968752        1.4198255760        0.0000000000
C        -4.5052434653        0.4721672392        0.0000000000
C        -4.2079517962       -0.8977608374        0.0000000000
C         0.2221609691        1.4418720265        0.0000000000
C        -1.0651968259        1.9510231454        0.0000000000
C         2.5302664134        2.1533895612        0.0000000000
C         1.2208323453        2.4945904035        0.0000000000
C         0.4204512903        3.7333770464        0.0000000000
C        -0.9089284178        3.4144738120        0.0000000000
H         0.8559716323        4.7300825363        0.0000000000
H        -1.7487040227        4.1069508648        0.0000000000
H         5.0407334674        1.0830621433        0.0000000000
H         5.6232267342       -1.3152143999        0.0000000000
H         3.8753739136       -3.0698885093        0.0000000000
H         1.4317306721       -3.6784817060        0.0000000000
H        -1.0275986399       -4.2382330699        0.0000000000
H        -3.3724604433       -3.4541541081        0.0000000000
H        -5.0241368546       -1.6289485936        0.0000000000
H        -5.5538041331        0.7887681676        0.0000000000
H        -3.7445254324        2.4887855841        0.0000000000
H         3.3291167271        2.9029845202        0.0000000000
