 38

C        -5.6150960703       -1.2728487954        0.0000000000
C        -4.3072983281       -0.7260081198        0.0000000000
C        -4.1467498867        0.6768574361        0.0000000000
C        -5.2968500677        1.5052951985        0.0000000000
C        -6.5516613283        0.9515468063        0.0000000000
C        -6.7121733319       -0.4497411393        0.0000000000
C        -2.8374714069        1.2541570360        0.0000000000
C        -1.7622587059        0.4218840213        0.0000000000
C        -1.9246873639       -1.0214061247        0.0000000000
C        -3.1631136974       -1.5846924605        0.0000000000
C        -0.5923246601       -1.6574295862        0.0000000000
C         0.3304522520       -0.6723968370        0.0000000000
C        -0.3304382252        0.6723323007        0.0000000000
C         0.5922872336        1.6573439131        0.0000000000
C         1.9246884329        1.0212856663        0.0000000000
C         3.1630719677        1.5846755249        0.0000000000
C         4.3072850130        0.7260355199        0.0000000000
C         4.1467672856       -0.6768251073        0.0000000000
C         2.8375362126       -1.2541723732        0.0000000000
C         1.7622731401       -0.4219776463        0.0000000000
C         5.6150529570        1.2729089563        0.0000000000
C         6.7121422827        0.4498251258        0.0000000000
C         6.5516629666       -0.9514574536        0.0000000000
C         5.2968767282       -1.5052172255        0.0000000000
H         7.4403741200       -1.5910224373        0.0000000000
H         7.7224334438        0.8719109903        0.0000000000
H         5.7342907495        2.3623530303        0.0000000000
H         5.1665211348       -2.5933820116        0.0000000000
H         3.3012830163        2.6712174282        0.0000000000
H         2.7252216447       -2.3434533186        0.0000000000
H         0.4398475374        2.7348456598        0.0000000000
H        -0.4394043112       -2.7348662864        0.0000000000
H        -2.7251327725        2.3434345796        0.0000000000
H        -3.3014364372       -2.6712229922        0.0000000000
H        -5.1665142830        2.5934652269        0.0000000000
H        -7.4403568407        1.5911327074        0.0000000000
H        -7.7224654190       -0.8718166468        0.0000000000
H        -5.7343448565       -2.3622939294        0.0000000000
