 38

C         4.9669282610        1.6100558912       -0.2077044861
C         3.8294369729        0.6876852751       -0.2053838048
C         2.7128597506        1.4197928194        0.4159142882
C         3.1593026236        2.6649784081        0.7694387548
C         4.5634052486        2.7733248687        0.3767080949
C         1.4337320874        0.7926416855        0.5113658474
C         1.2537005756       -0.4843234888        0.0550918417
C         2.4106478712       -1.2534318801       -0.3983279898
C         3.6853149508       -0.5856508074       -0.6111162220
C        -0.0450478538       -1.1550543682        0.0725470856
C        -0.0088991741       -2.6117631499        0.0992664471
C         1.1282891228       -3.2975022210       -0.2169706409
C         2.3315577900       -2.6079310165       -0.5372288137
C        -1.2221919442       -3.3389541889        0.4112481963
C        -2.4020538532       -2.7035033440        0.4938451652
C        -2.5016889101       -1.2772897260        0.2526670372
C        -1.2706657689       -0.5190070713        0.0297753734
C        -1.4130937972        0.8959594725       -0.2689169478
C        -2.6291521037        1.4722023363       -0.2769966688
C        -3.8535623603        0.7077815048        0.0034185192
C        -3.7336992957       -0.6896353558        0.2613982761
C        -3.0618913271        2.8471710313       -0.5374962571
C        -4.4188206243        2.8894904666       -0.4114619302
C        -4.9229857194        1.5591378535       -0.0776724354
H        -5.0608639111        3.7590711635       -0.5351560880
H        -2.3855056349        3.6631774958       -0.7804201969
H        -5.9738820495        1.3195717820        0.0669260386
H         5.1625600393        3.6664445276        0.5417248504
H         5.9471058700        1.3663276830       -0.6106488982
H         2.5957593085        3.4600535253        1.2525761025
H         4.5063344222       -1.1489716984       -1.0692671283
H         0.6058163977        1.3769247001        0.9362886852
H         3.1992572404       -3.1926174811       -0.8655038362
H        -1.1435042764       -4.4208052587        0.5689693350
H        -3.3234235680       -3.2481242054        0.7323607020
H        -4.6430259500       -1.2697239883        0.4571278726
H        -0.5170190883        1.4893091258       -0.4997285115
H         1.1325217590       -4.3937278815       -0.2358360984
