 42

C        -5.5933258562        1.2687051425       -0.1384205746
C        -6.3916430826        0.1756372536        0.1265515609
C        -5.8139267815       -1.0816140692        0.3525960780
C        -4.4440141063       -1.2317628804        0.3125472086
C        -4.1924109281        1.1311737955       -0.1822750379
C        -3.6115205647       -0.1277864249        0.0464911930
C        -2.0065109707        2.1457094238       -0.4978814299
C        -3.3514215978        2.2677605387       -0.4612761615
C        -1.3691008377        0.8747225361       -0.2549832482
C        -2.1680883202       -0.2651254557        0.0031696202
C        -1.5412998982       -1.4940261518        0.1820958105
C         0.0195453601        0.7618518092       -0.2691475324
C         0.6687075136       -0.4561160419       -0.0246333787
C        -0.1469870514       -1.6076183966        0.1371644118
C         0.4500898671       -2.9109203679        0.1886598986
C         1.7826231527       -3.0523580249        0.0065000947
C         2.1146328856       -0.6078835281       -0.0089065140
C         2.6306130850       -1.9022273018       -0.1198956947
C         4.0216064668       -2.1254659534       -0.3532045156
C         4.8856796589       -1.0813677467       -0.4231755717
C         3.0583530578        0.4817073184        0.1121461205
C         4.4249249176        0.2423426118       -0.1518528362
C         5.3640816812        1.3014154798       -0.0970257708
C         4.9735742974        2.5600794147        0.2814791673
C         3.6328363487        2.7904358734        0.6406178154
C         2.7066675823        1.7807938946        0.5592210368
H        -6.0416945944        2.2526354626       -0.3171689749
H        -7.4806254201        0.2837624599        0.1609987201
H        -6.4566118272       -1.9431721226        0.5606874851
H        -3.9731025820       -2.2118358531        0.4848041332
H        -1.3671091020        3.0102218867       -0.7112179318
H        -3.8362679513        3.2339514900       -0.6427432565
H        -2.1656419689       -2.3878569765        0.3453002640
H         0.6086041664        1.6635029799       -0.4919629937
H        -0.1994856681       -3.7808193238        0.3384891211
H         2.2449977720       -4.0460206399       -0.0235066628
H         4.3721509533       -3.1548908492       -0.4924961114
H         5.9466806279       -1.2372968659       -0.6492791765
H         6.4108335375        1.0950944552       -0.3488075299
H         5.6952044200        3.3820256975        0.3244079023
H         3.3351835367        3.7835811953        0.9931874578
H         1.6723140523        1.9852761602        0.8674510806
