 42

C         5.5692167508       -1.2202613401        0.6906587222
C         6.0836859246        0.0535381041        0.3184647618
C         5.2417654286        1.0598233910       -0.0457015507
C         4.2280144591       -1.4555366109        0.6811754088
C         3.3145655975       -0.4240004847        0.2942008908
C         3.8273246558        0.8475703592       -0.0607532366
C         2.9312030084        1.8707231239       -0.3896667855
C         1.9326339873       -0.6524614119        0.2568224541
C         1.0320494693        0.3395029686       -0.1298184838
C         1.5578981419        1.6385228300       -0.3963515898
C         0.6569668587        2.7349533597       -0.6073074735
C        -0.6741997921        2.5559264800       -0.4556583498
C        -0.4076643535        0.1355065284       -0.1925537524
C        -1.2292961630        1.2555800515       -0.2076821654
C        -1.0324468485       -1.1784620603       -0.2469094435
C        -2.4120796590       -1.3072962831        0.0090822352
C        -3.0112470839       -2.5835958627        0.0037301246
C        -2.2844204936       -3.7078445341       -0.3171340229
C        -0.9352125674       -3.5768351028       -0.6659626524
C        -0.3288224552       -2.3398987014       -0.6317478800
C        -3.2275187282       -0.1279392684        0.2137317822
C        -2.6548193242        1.1402428286        0.0313697074
C        -3.4785266388        2.2809234599        0.1401926334
C        -4.8153376128        2.1632017543        0.4503037327
C        -5.3777292026        0.8969757094        0.6620862518
C        -4.5952038056       -0.2298429282        0.5412510526
H         6.2729120507       -2.0061170880        0.9841013647
H         7.1675948215        0.2076123685        0.3322758443
H         5.6264602992        2.0453521291       -0.3310636228
H         3.8244418372       -2.4334772779        0.9671922141
H         3.3168272672        2.8703241325       -0.6264735746
H         1.5674771002       -1.6489671527        0.5454073841
H         1.0741728216        3.7185303550       -0.8517859908
H        -1.3662191770        3.4070147545       -0.5436048561
H        -4.0807839459       -2.6651735609        0.2511859293
H        -2.7564389291       -4.6954395218       -0.3176782644
H        -0.3649770299       -4.4609409646       -0.9695471765
H         0.7289011272       -2.2627138766       -0.9188868615
H        -3.0369821274        3.2755761127       -0.0216253819
H        -5.4429758425        3.0561705466        0.5361399824
H        -6.4384712621        0.8095813286        0.9183606657
H        -5.0298445472       -1.2297811892        0.6910861031
