 41

C         2.0436247596        1.0381317182       -0.0000000001
C         0.7287471535        1.7657331587       -0.0000000003
C         1.8128479882       -0.3807757822        0.0000000000
C         6.5706534486       -1.1505788811        0.0000000001
C         6.7985471679        0.2435280696        0.0000000001
C         5.7440757508        1.1178032285        0.0000000000
C         5.2927451955       -1.6432607713        0.0000000001
C         4.1813954812       -0.7594696774        0.0000000000
C         4.4093729789        0.6345193507        0.0000000000
C         3.3082886035        1.5427591475       -0.0000000001
C         2.8492850219       -1.2679899932        0.0000000000
C         0.3674281488       -0.5961545268        0.0000000000
C        -0.2774810450        0.6473858609       -0.0000000001
C        -1.7398230195       -1.7165245781       -0.0000000001
C        -0.3608664611       -1.7880343824        0.0000000000
C        -2.4139132282       -0.4771988320        0.0000000000
C        -1.6777068172        0.7282294113        0.0000000000
C        -2.3652701906        1.9896868590        0.0000000001
C        -3.7171544180        2.0427469873        0.0000000002
C        -3.8608225151       -0.4143447345        0.0000000000
C        -4.5007850130        0.8377246565        0.0000000001
C        -5.9103361115        0.9016419173        0.0000000002
C        -6.6589628188       -0.2537450165        0.0000000001
C        -6.0232878700       -1.5057442373       -0.0000000001
C        -4.6492033378       -1.5848507499       -0.0000000001
H         0.6180342276        2.4150119655        0.8886464122
H         0.6180342276        2.4150119653       -0.8886464129
H         7.4284655764       -1.8309605118        0.0000000002
H         7.8283854301        0.6152898749        0.0000000002
H         5.9150089508        2.2002861602        0.0000000000
H         5.1093694917       -2.7237013831        0.0000000001
H         3.4964558198        2.6216736352       -0.0000000002
H         2.6766195207       -2.3500072490        0.0000000001
H        -2.3443327812       -2.6368036027       -0.0000000001
H         0.1589670678       -2.7516794966        0.0000000000
H        -1.7605495443        2.9041508924        0.0000000001
H        -4.2446331361        3.0035722286        0.0000000003
H        -6.4011322717        1.8815818274        0.0000000003
H        -7.7526798127       -0.2040815552        0.0000000001
H        -6.6283172755       -2.4182344802       -0.0000000002
H        -4.1390099365       -2.5602737494       -0.0000000002
