 42

C         4.6019139709       -2.5523946776        0.3794144010
C         5.2976921872       -1.3538855374        0.0735927164
C         4.6145211268       -0.1914206623       -0.1394405497
C         3.2390482623       -2.5628724571        0.4570718816
C         2.4974856687       -1.3660446838        0.2292783841
C         3.1913061122       -0.1720225410       -0.0590431611
C         2.4540253940        1.0150706006       -0.2275105530
C         1.0887962742       -1.3535211404        0.2754775960
C         0.3562864532       -0.2017369864        0.0362655368
C         1.0714707419        1.0215681772       -0.1497543463
C        -1.0276643622        2.2957838408        0.1047587811
C         0.3470044246        2.2833807271       -0.1756742133
C         1.0133514350        3.4968832293       -0.4212998660
C         0.3376309199        4.6998262601       -0.3654554065
C        -1.0242975872        4.7174275086       -0.0528471348
C        -1.6948765983        3.5323080438        0.1779047911
C        -1.1065544866       -0.1828018966        0.0541707195
C        -1.7485701287        1.0383107543        0.2480789642
C        -3.1390465007        1.0753885434        0.5558957285
C        -3.8828607177       -0.0625068615        0.5914852677
C        -1.9213167712       -1.3628236776       -0.1049237053
C        -3.2964634743       -1.3014614076        0.2106747050
C        -4.1128712442       -2.4571149900        0.1058354070
C        -3.5949951292       -3.6332578807       -0.3665681484
C        -2.2448311922       -3.6863440612       -0.7676929289
C        -1.4366906704       -2.5869279806       -0.6394087706
H         5.1776991743       -3.4677224387        0.5512682198
H         6.3906786573       -1.3784270030        0.0135244055
H         5.1417479167        0.7404487781       -0.3722411875
H         2.6945298573       -3.4841308293        0.6930941132
H         2.9925706405        1.9601772109       -0.4041219380
H         0.5790283835       -2.3008792716        0.5043728438
H         2.0897561891        3.4743798968       -0.6498549222
H         0.8657397731        5.6389243137       -0.5594693725
H        -1.5578573595        5.6717513045        0.0040897874
H        -2.7686985988        3.5494083359        0.4170368624
H        -3.6025886015        2.0483637430        0.7782089446
H        -4.9416864752       -0.0377956007        0.8732210702
H        -5.1667694841       -2.3879672091        0.3991394812
H        -4.2193900736       -4.5283975618       -0.4505511469
H        -1.8490777504       -4.6163850883       -1.1891716444
H        -0.3908391893       -2.6536067112       -0.9691568844
