 42

C        -1.7488805564       -1.8270181231        0.6822475006
C        -2.5086714850       -0.7587706673        0.1411856781
C        -3.8529716569       -1.0335268684       -0.1936372915
C        -4.3596578113       -2.3537347124       -0.1102622384
C        -3.5737563904       -3.3732965815        0.3618002256
C        -2.2618717617       -3.0957745753        0.7877195706
C        -4.7336920558        0.0257482559       -0.5684077648
C        -4.3004914582        1.3111892227       -0.5284328955
C        -2.9379018448        1.6087393740       -0.2220429694
C        -2.0056795030        0.5894339870       -0.0078933644
C        -2.5606831639        2.9899603317       -0.1330964496
C        -1.2779879076        3.3411185670        0.1119636529
C        -0.2564854176        2.3353849994        0.1678967570
C        -0.6017676403        0.9630587658        0.0478637598
C         1.0831941870        2.7272857461        0.2771352213
C         2.1093255441        1.7899692820        0.2094768591
C         1.7862839187        0.4279147253       -0.0037504914
C         0.4490464054        0.0464775563       -0.0877206147
C         3.4896882028        2.1890286205        0.3243363523
C         4.4846047828        1.2820733719        0.2158061167
C         4.1952482463       -0.1101722249       -0.0185276062
C         2.8614801418       -0.5402950062       -0.1287007232
C         5.2413479746       -1.0456392291       -0.1375019988
C         4.9623832888       -2.3775378123       -0.3612723648
C         3.6333760798       -2.8095810236       -0.4703411078
C         2.5990206354       -1.9053884129       -0.3550360243
H         5.7765802014       -3.1034694532       -0.4551939967
H         6.2790808573       -0.7036651913       -0.0516978621
H         1.5510014634       -2.2326780800       -0.4381544881
H         3.4212322686       -3.8689944959       -0.6473572422
H         5.5353522841        1.5818825104        0.3026315527
H         3.7058563172        3.2489501684        0.5010397284
H         1.3259990681        3.7901554809        0.4027222949
H         0.2384398837       -1.0204531916       -0.2807875778
H        -0.9886434893        4.3912236637        0.2336302138
H        -3.3421377192        3.7510368405       -0.2433442964
H        -4.9823377303        2.1407451577       -0.7496417042
H        -5.7647543263       -0.2167603984       -0.8499824065
H        -5.3942763301       -2.5446123495       -0.4181795469
H        -3.9603028296       -4.3952600689        0.4278929253
H        -1.6540715443       -3.9020532889        1.2117491857
H        -0.7289934768       -1.6388621048        1.0450550076
