 38

C        -5.4009142048        0.1575881966        0.0000000000
C        -4.4504992489       -0.8295912528        0.0000000000
C        -3.0798329751       -0.4428700564        0.0000000000
C        -2.6278446576        0.8637911892        0.0000000000
C        -3.6333038676        1.8661964729        0.0000000000
C        -4.9641172315        1.5093811283        0.0000000000
C        -1.2011988939        1.0366374260        0.0000000000
C        -0.3624377233       -0.0843739215        0.0000000000
C        -0.8892768561       -1.4224467538        0.0000000000
C        -2.2379221308       -1.6020669096        0.0000000000
C        -0.6505608460        2.3609182666        0.0000000000
C         0.6872742910        2.5589863549        0.0000000000
C         1.5943561291        1.4421781731        0.0000000000
C         1.0755352004        0.1162454741        0.0000000000
C         2.9697035965        1.6549350845        0.0000000000
C         3.8608824179        0.5729822495        0.0000000000
C         3.3501998062       -0.7489502355        0.0000000000
C         1.9638691259       -0.9556980380        0.0000000000
C         5.2771849446        0.7715303969        0.0000000000
C         6.1224782865       -0.2964365368        0.0000000000
C         5.6101099987       -1.6237229641        0.0000000000
C         4.2665253981       -1.8471924735        0.0000000000
C        -3.1587896475       -2.7522063352        0.0000000000
C        -4.4449173177       -2.3029866407        0.0000000000
H        -2.8231398005       -3.7872091285        0.0000000000
H        -5.3517864652       -2.9043103875        0.0000000000
H         6.3164063066       -2.4603977690        0.0000000000
H         7.2077152372       -0.1512044945        0.0000000000
H         5.6621040941        1.7975327453        0.0000000000
H         3.8630891211       -2.8660457169        0.0000000000
H         3.3645938777        2.6786148866        0.0000000000
H         1.5694202720       -1.9844046491        0.0000000000
H         1.1092928011        3.5706027902        0.0000000000
H        -1.3628379835        3.1993057532        0.0000000000
H        -0.1867149664       -2.2687790379        0.0000000000
H        -3.3175939363        2.9186122321        0.0000000000
H        -5.7278579322        2.2949175362        0.0000000000
H        -6.4708742202       -0.0709107790        0.0000000000
