 38

C         4.5196163403       -1.9960779461        0.0000000000
C         4.9150717919       -0.6826789068        0.0000000000
C         3.1524968509       -2.3344466906        0.0000000000
C         2.1892417074       -1.3447766876        0.0000000000
C         0.7804631956       -1.6675425827        0.0000000000
C        -0.1778956097       -0.7087009017        0.0000000000
C         0.1778809050        0.7086340138        0.0000000000
C        -0.7804364587        1.6674775472        0.0000000000
C        -2.1892139658        1.3447497363        0.0000000000
C        -3.1524261832        2.3344320834        0.0000000000
C        -4.5195386828        1.9961041247        0.0000000000
C        -4.9150295377        0.6827322751        0.0000000000
C         2.5780786167        0.0259687787        0.0000000000
C         3.9491907047        0.3566277031        0.0000000000
C         4.3363838735        1.7235900704        0.0000000000
C         3.3843389537        2.7076210760        0.0000000000
C         2.0129967635        2.3791708413        0.0000000000
C         1.5982185753        1.0629298275        0.0000000000
C        -1.5982518300       -1.0629577478        0.0000000000
C        -2.5780872550       -0.0259776689        0.0000000000
C        -3.9491982667       -0.3565928956        0.0000000000
C        -4.3364255437       -1.7235305073        0.0000000000
C        -3.3844147827       -2.7075863312        0.0000000000
C        -2.0130676158       -2.3791785730        0.0000000000
H         5.2655152334       -2.7978970703        0.0000000000
H         5.9785013652       -0.4181055563        0.0000000000
H         2.8595992365       -3.3904048990        0.0000000000
H         0.4925035003       -2.7318487442        0.0000000000
H        -0.4924395665        2.7317715763        0.0000000000
H        -2.8594842356        3.3903763649        0.0000000000
H        -5.2654301930        2.7979274113        0.0000000000
H        -5.9784685665        0.4182043239        0.0000000000
H         5.4034361566        1.9727308950        0.0000000000
H         3.6759915033        3.7631003125        0.0000000000
H         1.2600076487        3.1823833257        0.0000000000
H        -5.4034875450       -1.9726264240        0.0000000000
H        -3.6760368043       -3.7630721366        0.0000000000
H        -1.2601189870       -3.1824279076        0.0000000000
