 40

C         5.7045781440       -0.8810506351        0.0000000000
C         5.9556720351        0.5147922264        0.0000000000
C         4.9183857030        1.4013605174        0.0000000000
C         4.4234059245       -1.3512167615        0.0000000000
C         3.3157162643       -0.4539222122        0.0000000000
C         3.5679521426        0.9387620071        0.0000000000
C         2.4973748353        1.8537099419        0.0000000000
C         1.1845836254        1.4062944488        0.0000000000
C         0.0846788875        2.3286962201        0.0000000000
C        -1.2073177109        1.8861989385        0.0000000000
C        -2.3297787771        2.8056331305        0.0000000000
C        -3.6019593075        2.3643556099        0.0000000000
C        -3.9114683322        0.9482026281        0.0000000000
C        -5.2133082175        0.4881392638        0.0000000000
C        -5.4783985591       -0.8951590945        0.0000000000
C        -4.4541698415       -1.8083956974        0.0000000000
C        -2.8330024635        0.0148037544        0.0000000000
C        -3.1038766656       -1.3726114867        0.0000000000
C        -2.0294607296       -2.2945480433        0.0000000000
C        -1.4897921481        0.4717771588        0.0000000000
C        -0.4386484902       -0.4514135030        0.0000000000
C        -0.7211447490       -1.8522471211        0.0000000000
C         0.3896734107       -2.7733119374        0.0000000000
C         1.6654193051       -2.3277430897        0.0000000000
C         1.9736956081       -0.9197707139        0.0000000000
C         0.9187669315        0.0042782206        0.0000000000
H         6.5528086487       -1.5732972563        0.0000000000
H         6.9922539465        0.8673005113        0.0000000000
H         5.1029819015        2.4817187382        0.0000000000
H         4.2103059756       -2.4311716235        0.0000000000
H         2.7111692809        2.9298277580        0.0000000000
H         0.3078424064        3.4028588802        0.0000000000
H        -2.1045126097        3.8785146234        0.0000000000
H        -4.4438321739        3.0664446062        0.0000000000
H        -6.0494449561        1.1964598323        0.0000000000
H        -6.5195031170       -1.2351471963        0.0000000000
H        -4.6642123867       -2.8839525761        0.0000000000
H        -2.2496155507       -3.3691567854        0.0000000000
H         0.1670489800       -3.8465356411        0.0000000000
H         2.5159960844       -3.0269792383        0.0000000000
