 38

C        -5.7645275892       -0.2613250129        0.0000000000
C        -4.5830287582       -0.9248977401        0.0000000000
C        -3.3573315845       -0.1553646274        0.0000000000
C        -3.3086387979        1.2535842674        0.0000000000
C        -4.5932981912        1.9102005399        0.0000000000
C        -5.7424887417        1.1806099951        0.0000000000
C        -2.0547383532        1.8289389521        0.0000000000
C        -0.8814258904        1.0108580166        0.0000000000
C        -0.9606948806       -0.4274017420        0.0000000000
C        -2.2567911176       -1.0019544465        0.0000000000
C         0.3807790485        1.6137152529        0.0000000000
C         1.5519664888        0.8472004237        0.0000000000
C         1.4644369424       -0.5773937197        0.0000000000
C         0.2061524015       -1.1908982320        0.0000000000
C         2.8317914202        1.4625502530        0.0000000000
C         3.9804986680        0.7014684569        0.0000000000
C         3.8920031297       -0.7313376342        0.0000000000
C         2.6583559442       -1.3455231818        0.0000000000
C         5.2868853292        1.3120337565        0.0000000000
C         6.4065159766        0.5508411702        0.0000000000
C         6.3181691688       -0.8799025406        0.0000000000
C         5.1134721842       -1.4977761056        0.0000000000
C        -2.7845151188       -2.3736608023        0.0000000000
C        -4.1486770276       -2.3308099467        0.0000000000
H        -2.1535518765       -3.2605461972        0.0000000000
H        -4.8360991509       -3.1736662656        0.0000000000
H         7.2481004694       -1.4578191270        0.0000000000
H         7.4004333977        1.0100263834        0.0000000000
H         5.3440587606        2.4064631318        0.0000000000
H         5.0356366530       -2.5909490933        0.0000000000
H         2.8937677797        2.5578972691        0.0000000000
H         2.5842513287       -2.4400760126        0.0000000000
H         0.4578594123        2.7085978396        0.0000000000
H         0.1327456956       -2.2855852232        0.0000000000
H        -1.9418664160        2.9195928431        0.0000000000
H        -4.6170479183        3.0053000755        0.0000000000
H        -6.7108710532        1.6933900443        0.0000000000
H        -6.7280209213       -0.7801351357        0.0000000000
