 41

C         5.9612299247        0.1593233944        0.0000000001
C         5.1636931591        1.2709594685        0.0000000001
C         4.0300896742       -1.2913882165        0.0000000000
C         5.3888032945       -1.1349773507        0.0000000000
C         3.1786821371       -0.1533363224        0.0000000000
C         3.7477841015        1.1405807610        0.0000000000
C         2.9065125999        2.2859202557        0.0000000000
C         1.5403430515        2.1674817095        0.0000000000
C         1.7699728609       -0.2513431813       -0.0000000001
C         0.9572732780        0.8838720542        0.0000000000
C         0.9281050841       -1.4916770971       -0.0000000001
C        -0.4661242929       -0.9329077697       -0.0000000001
C        -0.4458833715        0.4492778332        0.0000000000
C        -1.6812220146       -1.6800989902        0.0000000000
C        -2.8969174072       -0.9694166034        0.0000000000
C        -4.1059451277       -1.7001215940        0.0000000001
C        -4.0995657307       -3.0757325716        0.0000000001
C        -2.8828963941       -3.7783082469        0.0000000000
C        -1.6910833047       -3.0920359720        0.0000000000
C        -2.8894319341        0.4793428128        0.0000000000
C        -1.6717952038        1.1956587013        0.0000000000
C        -1.7114015873        2.6063219251        0.0000000000
C        -2.9097422719        3.2823696863        0.0000000000
C        -4.1195470539        2.5718400987        0.0000000000
C        -4.1062114162        1.1967644829        0.0000000000
H         7.0517552757        0.2572850101        0.0000000001
H         5.6019063985        2.2754683208        0.0000000001
H         3.5749269347       -2.2883506553       -0.0000000001
H         6.0493864311       -2.0081450345        0.0000000000
H         3.3736753859        3.2776218718        0.0000000001
H         0.9063633409        3.0631879126        0.0000000001
H         1.1202209173       -2.1212523142        0.8894754808
H         1.1202209173       -2.1212523141       -0.8894754812
H        -5.0567144826       -1.1456069451        0.0000000001
H        -5.0427879613       -3.6316975420        0.0000000001
H        -2.8918175854       -4.8730832717        0.0000000001
H        -0.7362983766       -3.6304740651       -0.0000000001
H        -0.7716667013        3.1736335204        0.0000000000
H        -2.9261832144        4.3771529455        0.0000000000
H        -5.0689380110        3.1169346759        0.0000000000
H        -5.0505227733        0.6310386643        0.0000000000
