 40

C         4.6729321096        0.4980372046        0.0000000000
C         4.6251721622        1.8805857838        0.0000000000
C         3.4068828073        2.5701434639        0.0000000000
C         3.4795007086       -0.2457707072        0.0000000000
C         2.2810606585       -2.3814905982        0.0000000000
C         3.4507525939       -1.6838418164        0.0000000000
C         1.0179133446       -1.7041578449        0.0000000000
C         2.2573414342        0.4523411955        0.0000000000
C         2.2024310251        1.8745906149        0.0000000000
C         0.9201343410        2.5698319402        0.0000000000
C         1.0522662934       -0.3086324764        0.0000000000
C        -0.2596333528       -2.3594302089        0.0000000000
C        -1.4746498898       -1.6172725274        0.0000000000
C        -2.7128700119       -2.3103104825        0.0000000000
C        -2.7440927731       -3.6792288608        0.0000000000
C        -1.5412385859       -4.4201779399        0.0000000000
C        -0.3323732546       -3.7770381439        0.0000000000
C        -0.1556206561        0.3983018911        0.0000000000
C        -0.2239835552        1.8501600486        0.0000000000
C        -1.4061285548       -0.2004777334        0.0000000000
C        -2.3810804069        0.8991750078        0.0000000000
C        -1.6651701288        2.1422844476        0.0000000000
C        -2.3470804746        3.3414271570        0.0000000000
C        -3.7474500468        3.3113447464        0.0000000000
C        -4.4401895553        2.1089115934        0.0000000000
C        -3.7614799435        0.8851014169        0.0000000000
H         5.6358342772       -0.0248044982        0.0000000000
H         5.5587872775        2.4536955375        0.0000000000
H         3.4059449231        3.6661451300        0.0000000000
H         2.2611093012       -3.4821136059        0.0000000000
H         4.4110549198       -2.2123797907        0.0000000000
H         0.9193790067        3.6653413668        0.0000000000
H        -3.6404361728       -1.7157827840        0.0000000000
H        -3.6999191062       -4.2132099729        0.0000000000
H        -1.5877659572       -5.5140325210        0.0000000000
H         0.6164835427       -4.3361253380        0.0000000000
H        -1.8074520563        4.2936280495        0.0000000000
H        -4.3016381584        4.2558209640        0.0000000000
H        -5.5351805915        2.1133067795        0.0000000000
H        -4.3002058271       -0.0735793718        0.0000000000
