 42

C        -4.2762166442       -2.1504911376        1.0411732334
C        -5.2232907179       -1.2528632302        0.4775833841
C        -4.8205110866       -0.0602531413       -0.0454486407
C        -2.9498977710       -1.8362192771        1.0602292671
C        -2.4931782549       -0.5986564550        0.5110127767
C        -3.4386900940        0.3014519615       -0.0351386845
C        -2.9989095425        1.5423466221       -0.5232294050
C        -1.1275633975       -0.2669914788        0.4974244883
C        -0.6802871560        0.9286378312       -0.0527699901
C        -1.6503963325        1.8730942125       -0.5020830858
C        -1.2331861713        3.2095330638       -0.8439804981
C         0.0361518675        3.6045624785       -0.6102212990
C         0.7279336825        1.3016512277       -0.0638241073
C         1.0283850065        2.6670439883       -0.1511493453
C         2.3115462193        3.1471856794        0.2143323122
C         3.2589583867        2.2771287592        0.6741660901
C         1.8173828080        0.3811482271        0.0956359239
C         3.0270344001        0.8790693204        0.6093262599
C         4.0489124334       -0.0203095685        1.0606153346
C         3.9171220895       -1.3575007877        0.8906776433
C         1.7926029675       -1.0122437637       -0.3036146759
C         2.8126197944       -1.8773871698        0.1391414630
C         2.7908255956       -3.2432141321       -0.2229056220
C         1.8226513005       -3.7211628402       -1.0730991724
C         0.8624521789       -2.8421835761       -1.6023616259
C         0.8486002487       -1.5190674798       -1.2275872255
H        -4.6319263060       -3.0977983566        1.4593963635
H        -6.2807247301       -1.5367661256        0.4728727140
H        -5.5432394829        0.6398835547       -0.4792610516
H        -2.2123380389       -2.5226699599        1.4915545759
H        -3.7348448663        2.2640819067       -0.8989556182
H         0.1042565421       -0.8371178229       -1.6590070141
H        -1.9817122255        3.9019227279       -1.2456636906
H         0.3493278669        4.6402598821       -0.7860013602
H         2.5128016874        4.2233824505        0.1652904800
H         4.2192291899        2.6415407429        1.0565239258
H         4.9283061467        0.4022100419        1.5602625841
H         4.6682801858       -2.0572770934        1.2739381331
H         3.5674113856       -3.9103146725        0.1683880773
H         1.8042452572       -4.7779535402       -1.3580960096
H         0.1251037969       -3.2181977801       -2.3193234458
H        -0.4071342397       -0.9738866301        0.9325192701
