 40

C         2.3791679699       -3.5319411856        0.0000000000
C         3.5679495346       -2.8404945948        0.0000000000
C         3.5726839857       -1.4378730581        0.0000000000
C         2.3863414361       -0.7227643635        0.0000000000
C        -0.1131248719        3.5331821108        0.0000000000
C        -1.2866324824        2.8462623821        0.0000000000
C        -0.1028785518        0.7185268239        0.0000000000
C        -1.3079730217        1.4181980482        0.0000000000
C         1.1518975957       -2.8324141138        0.0000000000
C         1.1489873194       -1.4230989986        0.0000000000
C        -0.0986778030       -0.7191243177        0.0000000000
C        -1.2996719015       -1.4258222041        0.0000000000
C        -1.2699870071       -2.8537482476        0.0000000000
C        -0.0924408447       -3.5338179207        0.0000000000
C        -2.5536278107       -0.7110455013        0.0000000000
C        -2.5577353555        0.6961196804        0.0000000000
C        -3.7957267458        1.3791226925        0.0000000000
C        -4.9836768680        0.6880178521        0.0000000000
C        -4.9795697671       -0.7171115934        0.0000000000
C        -3.7876055958       -1.4012628579        0.0000000000
C         1.1352890465        2.8390811941        0.0000000000
C         1.1406380369        1.4297787407        0.0000000000
C         2.3820647508        0.7367008907        0.0000000000
C         3.5641990060        1.4587459552        0.0000000000
C         3.5512463129        2.8613140137        0.0000000000
C         2.3584308913        3.5457844992        0.0000000000
H         2.3700755206       -4.6277447455        0.0000000000
H         4.5214549193       -3.3788830947        0.0000000000
H         4.5283004560       -0.8909642104        0.0000000000
H        -0.1036474261        4.6291449343        0.0000000000
H        -2.2515031587        3.3762054095        0.0000000000
H        -2.2317510096       -3.3893168657        0.0000000000
H        -0.0765628597       -4.6297095289        0.0000000000
H        -3.7878577807        2.4797963424        0.0000000000
H        -5.9372938602        1.2258126688        0.0000000000
H        -5.9300164258       -1.2604870416        0.0000000000
H        -3.7732928235       -2.5018693180        0.0000000000
H         4.5229978117        0.9174345949        0.0000000000
H         4.5015670313        3.4053036615        0.0000000000
H         2.3429309849        4.6415155089        0.0000000000
