 38

C         1.3026496993       -3.7233409024        0.4666709838
C         2.6986911881       -3.7344441555        0.1921336237
C         3.3481083571       -2.5690517835       -0.0642704375
C         0.5977734654       -2.5615368607        0.4174483956
C         1.2216645018       -1.3154337972        0.0921171801
C         2.6469728019       -1.3163817359       -0.0811223186
C         3.3883664260       -0.1379389769       -0.2372874609
C         2.7408713853        1.0993286709       -0.1882111006
C         3.3556711021        2.3930383498       -0.2314687608
C         2.5964458627        3.5242830634       -0.1265092227
C         1.1748037886        3.4832740323        0.0262017714
C         0.5432396532       -0.0911810263       -0.0003589105
C         1.3477595996        1.0713905161       -0.0686651785
C         0.5621324100        2.2682946140        0.0483690698
C        -0.8568637279        0.3986065442        0.0419926818
C        -0.8212667912        1.8058739046        0.1569690832
C        -1.9725294401        2.5839087002        0.3362947960
C        -3.1905367418        1.9535215798        0.3684926011
C        -2.1235677071       -0.2306925191       -0.0778214979
C        -3.2850101843        0.5574934604        0.1367846651
C        -4.5705679262       -0.0522793725        0.0782225811
C        -4.7031531185       -1.3714542971       -0.2508713870
C        -3.5553725994       -2.1382031702       -0.5576671620
C        -2.3087864132       -1.5837070347       -0.4743710596
H         0.8088036484       -4.6657394321        0.7259105926
H         3.2346384302       -4.6888994416        0.2054204889
H         4.4279018173       -2.5612020927       -0.2545680974
H        -0.4743079088       -2.5603944805        0.6559811765
H         4.4756419647       -0.1833076932       -0.3719521606
H         4.4437601901        2.4513213549       -0.3435766369
H         3.0775924001        4.5080738514       -0.1549445067
H         0.6101773086        4.4162788606        0.1215003438
H        -1.8821888808        3.6687851093        0.4537287063
H        -4.1084733354        2.5260129960        0.5443780380
H        -5.4535826670        0.5612662026        0.2916379722
H        -5.6903435494       -1.8423058790       -0.2961591386
H        -3.6791334938       -3.1802022006       -0.8706047585
H        -1.4276224244       -2.1809040297       -0.7433409421
