 38

C         5.1700538561       -0.7402197858        0.0000000000
C         5.8030011169        0.4814573718        0.0000000000
C         5.0484578320        1.6666027845        0.0000000000
C         3.6738222454        1.6128148583        0.0000000000
C         3.7600460882       -0.8122286783        0.0000000000
C         3.0012366987        0.3712066645        0.0000000000
C         1.7415180284       -2.1541756746        0.0000000000
C         3.0937289123       -2.0831404406        0.0000000000
C         0.9313278404       -0.9688326857        0.0000000000
C         1.5554812184        0.2923943742        0.0000000000
C         0.7719122940        1.4641482323        0.0000000000
C        -0.6090765871        1.3970404014        0.0000000000
C        -1.4225897269        2.5916417701        0.0000000000
C        -2.7705656217        2.5213727597        0.0000000000
C        -3.4519851483        1.2477997045        0.0000000000
C        -4.8425793201        1.1643790473        0.0000000000
C        -5.4723193336       -0.0800977313        0.0000000000
C        -4.7299968290       -1.2493543168        0.0000000000
C        -2.6823410524        0.0591383506        0.0000000000
C        -3.3280377977       -1.1954275237        0.0000000000
C        -2.5267660107       -2.3874033688        0.0000000000
C        -1.1735666163       -2.3155360122        0.0000000000
C        -0.4885772219       -1.0520592718        0.0000000000
C        -1.2509916497        0.1269664865        0.0000000000
H         5.7522997769       -1.6687092514        0.0000000000
H         6.8963659779        0.5384356588        0.0000000000
H         5.5627535127        2.6331655548        0.0000000000
H         3.0730809995        2.5351225620        0.0000000000
H         1.2228639396       -3.1252342003        0.0000000000
H         3.7064407188       -2.9919359792        0.0000000000
H         1.2835727357        2.4401585096        0.0000000000
H        -0.9078061582        3.5593804217        0.0000000000
H        -3.3841440177        3.4296390201        0.0000000000
H        -5.4434877112        2.0808093518        0.0000000000
H        -6.5663648160       -0.1301468486        0.0000000000
H        -5.2325675378       -2.2231357102        0.0000000000
H        -3.0393901249       -3.3561216347        0.0000000000
H        -0.5564588971       -3.2271430242        0.0000000000
