 38

C         5.4064474562       -1.0575925976        0.0000000000
C         5.7598320064        0.3141563976        0.0000000000
C         4.7894787807        1.2755224044        0.0000000000
C         4.0926184605       -1.4317201701        0.0000000000
C         3.0560603930       -0.4553171754        0.0000000000
C         3.4110648730        0.9127343138        0.0000000000
C         2.4067643260        1.9053169688        0.0000000000
C         1.0705175298        1.5533063122        0.0000000000
C         0.0315299801        2.5534862725        0.0000000000
C        -1.2733334083        2.2027177940        0.0000000000
C        -1.6795525487        0.8208272442        0.0000000000
C        -2.4067466217       -1.9052820682        0.0000000000
C         1.6795183666       -0.8207800952        0.0000000000
C         0.6965791297        0.1761773628        0.0000000000
C        -0.6965762375       -0.1761335366        0.0000000000
C        -1.0704592492       -1.5532687569        0.0000000000
C        -0.0314906878       -2.5534183448        0.0000000000
C         1.2733373323       -2.2026535437        0.0000000000
C        -3.4110331474       -0.9127253388        0.0000000000
C        -3.0560676300        0.4553426753        0.0000000000
C        -4.0927076881        1.4316952256        0.0000000000
C        -5.4064858468        1.0575009227        0.0000000000
C        -5.7598326368       -0.3142824743        0.0000000000
C        -4.7894760116       -1.2755798071        0.0000000000
H         6.2003363009       -1.8115534439        0.0000000000
H         6.8193296197        0.5902137711        0.0000000000
H         5.0534081701        2.3392646229        0.0000000000
H         3.8015724872       -2.4932907749        0.0000000000
H         2.6991513822        2.9627256694        0.0000000000
H         0.3325184529        3.6074522873        0.0000000000
H        -2.0706300550        2.9620267005        0.0000000000
H        -2.6990041388       -2.9627273954        0.0000000000
H        -0.3324104107       -3.6074010180        0.0000000000
H         2.0705726744       -2.9620189890        0.0000000000
H        -3.8016129768        2.4932485856        0.0000000000
H        -6.2004708295        1.8113634617        0.0000000000
H        -6.8193389058       -0.5903058529        0.0000000000
H        -5.0532660359       -2.3393546542        0.0000000000
