 41

C        -4.4991043086       -2.4549845270        0.4430680989
C        -5.6050029091       -1.6333292463        0.2596917676
C        -5.4531518347       -0.2657385180        0.0135437378
C        -3.2029941630       -1.9375783120        0.3854996259
C        -3.0484280161       -0.5838672558        0.1412827933
C        -4.1739792763        0.2538551552       -0.0439087739
C        -3.7401997012        1.6719784320       -0.2897741274
C        -1.8408659342        0.2309650329        0.0226964803
C        -2.2419200790        1.5808430954       -0.2208670885
C        -1.3018782833        2.5644075931       -0.3221730824
C        -0.5200053878       -0.1152863671        0.1085385151
C         0.4864085561        0.8756605011       -0.0555160831
C         0.0729278224        2.2193167387       -0.2038068856
C         1.0350820469        3.2740199606       -0.1776501185
C         2.3406027793        2.9972414078        0.0668054592
C         1.9013436569        0.5752013272        0.0011136290
C         2.7858496935        1.6453533573        0.1842748747
C         4.1637588506        1.4208508973        0.4964190203
C         4.6575693763        0.1610073003        0.5719659060
C         2.4738049461       -0.7510446860       -0.1180046234
C         3.8287358185       -0.9510299727        0.2244468877
C         4.4005451474       -2.2443654499        0.1708021983
C         3.6675785808       -3.3124909633       -0.2821257857
C         2.3471630024       -3.1092934611       -0.7190359632
C         1.7710653393       -1.8645988727       -0.6404515764
H        -4.6433474734       -3.5231756510        0.6358324532
H        -6.6118381949       -2.0610643450        0.3086483474
H        -6.3271402024        0.3768741830       -0.1296791147
H        -2.3308501060       -2.5832596661        0.5305831012
H        -4.0833302520        2.0414013578       -1.2736799078
H        -4.1455423528        2.3616919782        0.4733162341
H        -1.5872595329        3.6106400183       -0.4780917493
H        -0.2499731231       -1.1585281327        0.3213501014
H         0.6929519198        4.3057101848       -0.3188385743
H         3.0785193769        3.8029421181        0.1576707811
H         4.8037627724        2.2888524362        0.6937283557
H         5.6988216826       -0.0249210918        0.8588883164
H         5.4422925979       -2.3777131500        0.4848417869
H         4.1053936983       -4.3148580238       -0.3238711699
H         1.7817536631       -3.9524029925       -1.1297437034
H         0.7453251966       -1.7342853247       -1.0114053701
