 38

C        -1.7444143113        0.6930954056        0.0000000000
C        -0.7201283368       -0.2570278566        0.0000000000
C        -3.0505992539        0.0736113213        0.0000000000
C         5.4070493942       -0.6095431485        0.0000000000
C         5.6404019031        0.8021515145        0.0000000000
C         4.6022702112        1.6741568330        0.0000000000
C         4.1434056289       -1.1009475849        0.0000000000
C         3.0112171905       -0.2128048895        0.0000000000
C         3.2437781708        1.1983829071        0.0000000000
C         2.1738665353        2.0761091318        0.0000000000
C         1.7146372610       -0.6958825682        0.0000000000
C         0.6160617383        0.1878305677        0.0000000000
C         0.8409764940        1.6046293814        0.0000000000
C        -0.2325048831        2.5312224036        0.0000000000
C        -1.5466948894        2.0852671567        0.0000000000
C        -2.7442641370        2.8833756919        0.0000000000
C        -3.9715228816        2.2907118907        0.0000000000
C        -4.1530315038        0.8644221696        0.0000000000
C        -1.3734096703       -1.5722752693        0.0000000000
C        -2.7913288689       -1.3716216456        0.0000000000
C        -3.6532907466       -2.4491043762        0.0000000000
C        -3.1058049099       -3.7378878652        0.0000000000
C        -1.7316561869       -3.9338944348        0.0000000000
C        -0.8477093663       -2.8494271495        0.0000000000
H         6.2719659790       -1.2809129178        0.0000000000
H         6.6753695450        1.1593931215        0.0000000000
H         4.7712799139        2.7569843064        0.0000000000
H         3.9537880541       -2.1802911309        0.0000000000
H         2.3563536423        3.1582911363        0.0000000000
H         1.5174729034       -1.7807823447        0.0000000000
H        -0.0155305791        3.6060084872        0.0000000000
H        -2.6425786596        3.9739897519        0.0000000000
H        -4.8744715550        2.9113516590        0.0000000000
H        -5.1657845367        0.4496174439        0.0000000000
H        -4.7375877161       -2.3001363245        0.0000000000
H        -3.7764977194       -4.6034891937        0.0000000000
H        -1.3289092058       -4.9521376444        0.0000000000
H         0.2420676686       -2.9962184413        0.0000000000
