 38

C         5.9657645981       -0.0836005515        0.0000000000
C         5.8375473474        1.3304035354        0.0000000000
C         4.6043608936        1.9140248423        0.0000000000
C         4.8574437438       -0.8793097720        0.0000000000
C         3.5539665516       -0.2990790757        0.0000000000
C         3.4255026277        1.1094891704        0.0000000000
C         2.1431439438        1.6914570172        0.0000000000
C         2.3952874727       -1.0987358020        0.0000000000
C         1.1370889471       -0.5230422142        0.0000000000
C         1.0015426124        0.9042598330        0.0000000000
C        -0.3044609097        1.5441947923        0.0000000000
C        -0.0621552027       -1.3438673445        0.0000000000
C        -2.5779434845       -2.6881839760        0.0000000000
C        -1.3557834890       -3.3925217402        0.0000000000
C        -0.1279014395       -2.7529896453        0.0000000000
C        -1.2701564226       -0.6710565899        0.0000000000
C        -1.4111955607        0.7719747662        0.0000000000
C        -2.5346225737       -1.3120820914        0.0000000000
C        -3.5382186589       -0.2394043811        0.0000000000
C        -2.8587918162        1.0198515831        0.0000000000
C        -3.5713537407        2.2015316095        0.0000000000
C        -4.9701383097        2.1341174902        0.0000000000
C        -5.6287588565        0.9130613833        0.0000000000
C        -4.9169953640       -0.2929606162        0.0000000000
H         6.9686848599       -0.5229652409        0.0000000000
H         6.7451286862        1.9429210482        0.0000000000
H         4.4966382627        3.0045881556        0.0000000000
H         4.9463818387       -1.9714952711        0.0000000000
H         2.0559383526        2.7854154162        0.0000000000
H         2.4843515208       -2.1952007935        0.0000000000
H        -0.3574700423        2.6386153270        0.0000000000
H        -3.5300771557       -3.2276919413        0.0000000000
H        -1.3863023392       -4.4875876804        0.0000000000
H         0.8097301159       -3.3245977066        0.0000000000
H        -3.0561576306        3.1672377635        0.0000000000
H        -5.5500161147        3.0630346555        0.0000000000
H        -6.7235314522        0.8875181303        0.0000000000
H        -5.4406440946       -1.2541353012        0.0000000000
