 40

C         4.5266224972       -1.8065956363        0.0000000000
C         4.9286871780       -0.4972246750        0.0000000000
C         3.1561570212       -2.1311433024        0.0000000000
C         3.9656032298        0.5456406320        0.0000000000
C         4.3715592690        1.9069668094        0.0000000000
C         3.4346911649        2.9049686349        0.0000000000
C         2.0604428555        2.5923115516        0.0000000000
C         2.1922382092       -1.1434524281        0.0000000000
C         2.5905601858        0.2266558138        0.0000000000
C         1.6294407676        1.2816137872        0.0000000000
C         0.7682502024       -1.4698326424        0.0000000000
C        -1.0048070860       -3.1280716514        0.0000000000
C         0.3408142792       -2.8041079621        0.0000000000
C        -0.1855487784       -0.4384826405        0.0000000000
C         0.2039515137        0.9547037706        0.0000000000
C        -0.7457474695        1.9338766229        0.0000000000
C        -2.1474203917        1.6255494001        0.0000000000
C        -3.1198164322        2.6313867779        0.0000000000
C        -4.4689284874        2.2991889414        0.0000000000
C        -4.8742105860        0.9696123788        0.0000000000
C        -1.5621093643       -0.7662293509        0.0000000000
C        -2.5495795314        0.2711609229        0.0000000000
C        -3.9243800919       -0.0563598186        0.0000000000
C        -4.3107251189       -1.4439851908        0.0000000000
C        -3.3798141556       -2.4256404962        0.0000000000
C        -1.9730914394       -2.1175297734        0.0000000000
H         5.2647180123       -2.6154196836        0.0000000000
H         5.9931405952       -0.2367048750        0.0000000000
H         2.8475739492       -3.1879176636        0.0000000000
H         5.4421373037        2.1409930758        0.0000000000
H         3.7404178652        3.9563834720        0.0000000000
H         1.3176813597        3.4050606913        0.0000000000
H        -1.3168862894       -4.1786142318        0.0000000000
H         1.1009906525       -3.6008817562        0.0000000000
H        -0.4404780551        2.9930484426        0.0000000000
H        -2.8123769337        3.6831466300        0.0000000000
H        -5.2220481651        3.0943390092        0.0000000000
H        -5.9413594885        0.7205046486        0.0000000000
H        -5.3810339032       -1.6800075535        0.0000000000
H        -3.6737393157       -3.4816172578        0.0000000000
