 42

C        -5.0905816243        0.8690929043       -0.4439100183
C        -5.7121215755       -0.3436666881       -0.0942114686
C        -4.9375263328       -1.4289399007        0.2247738974
C        -3.7236372954        0.9881849363       -0.4073000370
C        -2.8896437679       -0.0895222167       -0.0128292308
C        -3.5248477978       -1.3261269584        0.2308479402
C        -2.7413537047       -2.5014477179        0.4240034488
C        -1.3933680136       -2.4428774997        0.2845212989
C        -1.4452488471       -0.0076762303        0.0665973755
C        -0.7199776203       -1.1985859834        0.0760864118
C        -0.6995093183        1.2365700367        0.1041091169
C         0.6993248395        1.2367745333       -0.1037873668
C         1.3232190711        2.4758521829       -0.3774282348
C         0.6610993757        3.6717908240       -0.2282151343
C        -0.6624759081        3.6714953692        0.2293340627
C        -1.3240607702        2.4752305354        0.3781716875
C         1.4453409991       -0.0073742777       -0.0665621323
C         0.7201997449       -1.1984184899       -0.0756597823
C         1.3935923022       -2.4427613253       -0.2836918247
C         2.7415469862       -2.5013435627       -0.4233941399
C         2.8897975436       -0.0891701865        0.0124186688
C         3.5249709668       -1.3258933005       -0.2308471043
C         4.9376561016       -1.4288750439       -0.2249661982
C         5.7124532625       -0.3435646660        0.0933118627
C         5.0910444097        0.8694175579        0.4424759560
C         3.7241020840        0.9885871334        0.4061429563
H        -5.7087838798        1.7186749100       -0.7526674913
H        -6.8043259531       -0.4155426303       -0.0994655122
H        -5.3998741768       -2.3931922667        0.4655776459
H        -3.2708921140        1.9418488583       -0.7103356206
H        -3.2477806930       -3.4480524588        0.6446913227
H        -0.7947065441       -3.3627059104        0.3585492559
H         2.3661673994        2.4914184151       -0.7219091593
H         1.1658001858        4.6183855421       -0.4462784354
H        -1.1674338887        4.6178667348        0.4477513724
H        -2.3668224251        2.4898285151        0.7233030981
H         0.7949853398       -3.3626632839       -0.3572729567
H         3.2479506196       -3.4480407317       -0.6437403084
H         5.3997991505       -2.3932584365       -0.4656457196
H         6.8046575558       -0.4154251678        0.0983124819
H         5.7093735726        1.7191071206        0.7506929923
H         3.2719440637        1.9427220971        0.7085324395
