 38

C         4.2046191919        1.4935711753        0.0000000000
C         3.3801778084        2.5935847176        0.0000000000
C         1.9613506851        2.4947225490        0.0000000000
C         3.6448875205        0.1851642193        0.0000000000
C         2.2040856312       -2.2831448850        0.0000000000
C         3.6256479727       -2.2376720931        0.0000000000
C         4.3343583102       -1.0597754531        0.0000000000
C         2.2585315186        0.1147159580        0.0000000000
C         1.3912721452        1.2504301419        0.0000000000
C         1.5108198208       -1.1030596439        0.0000000000
C         0.0961782249       -0.6931455508        0.0000000000
C         0.0254211073        0.6994053221        0.0000000000
C        -1.0843965242       -1.4956760068        0.0000000000
C        -2.3354701243       -0.8432768687        0.0000000000
C        -3.5098004249       -1.6300756743        0.0000000000
C        -3.4418182810       -3.0031126633        0.0000000000
C        -2.1933362517       -3.6481881143        0.0000000000
C        -1.0352891313       -2.9078334885        0.0000000000
C        -2.4089043041        0.6023239046        0.0000000000
C        -1.2303780216        1.3782534944        0.0000000000
C        -1.3249399296        2.7880687471        0.0000000000
C        -2.5521935159        3.4070530240        0.0000000000
C        -3.7287784564        2.6386892017        0.0000000000
C        -3.6570196723        1.2658318637        0.0000000000
H         5.2938836567        1.6070139685        0.0000000000
H         3.8215597959        3.5964214668        0.0000000000
H         1.3436635831        3.4037117084        0.0000000000
H         1.6820968338       -3.2503052852        0.0000000000
H         4.1664260666       -3.1905918710        0.0000000000
H         5.4295085451       -1.0622434658        0.0000000000
H        -4.4846145201       -1.1187809712        0.0000000000
H        -4.3583524649       -3.6019696487        0.0000000000
H        -2.1513654591       -4.7421894049        0.0000000000
H        -0.0536058214       -3.4050456215        0.0000000000
H        -0.3992013022        3.3830507395        0.0000000000
H        -2.6214758063        4.4996730260        0.0000000000
H        -4.7013557253        3.1414322261        0.0000000000
H        -4.5748905399        0.6582151927        0.0000000000
