 40

C         4.7156347900        0.8963642867        0.0000000000
C         4.3845801233        2.2574613947        0.0000000000
C         3.0666393900        2.6638655755        0.0000000000
C         2.0287442715        1.7090763813        0.0000000000
C         0.6573641946        2.0978180948        0.0000000000
C        -0.3498798023        1.1667126003        0.0000000000
C        -2.4311607600       -0.8319792824        0.0000000000
C        -3.4086491410       -1.8110183389        0.0000000000
C        -3.0653832990       -3.1731730480        0.0000000000
C        -1.7476918550       -3.5598241115        0.0000000000
C        -0.0277563714       -0.2332942265        0.0000000000
C        -1.0606029320       -1.2160311680        0.0000000000
C        -0.7193905512       -2.5864554928        0.0000000000
C         0.6479892367       -2.9758067868        0.0000000000
C         2.3552093856        0.3367795539        0.0000000000
C         1.3123605823       -0.6379046967        0.0000000000
C         1.6461689915       -2.0314714925        0.0000000000
C         3.0448385543       -2.4080256210        0.0000000000
C         4.0231773626       -1.4806833158        0.0000000000
C         3.7166642949       -0.0666032095        0.0000000000
C        -2.7704703043        0.5879606258        0.0000000000
C        -1.7564349468        1.5618640916        0.0000000000
C        -2.1120038944        2.9188092108        0.0000000000
C        -3.4410090390        3.3061263831        0.0000000000
C        -4.4465290934        2.3399618339        0.0000000000
C        -4.1123163797        0.9966543226        0.0000000000
H         5.7688451950        0.5936645942        0.0000000000
H         5.1868613343        3.0029990716        0.0000000000
H         2.8139901961        3.7301436563        0.0000000000
H         0.4093548586        3.1715909222        0.0000000000
H        -4.4689414874       -1.5147969148        0.0000000000
H        -3.8626601988       -3.9238505599        0.0000000000
H        -1.4767363902       -4.6216968296        0.0000000000
H         0.8935685616       -4.0450276587        0.0000000000
H         3.2818621287       -3.4783541730        0.0000000000
H         5.0797301495       -1.7725690519        0.0000000000
H        -1.3122598209        3.6755086630        0.0000000000
H        -3.7028391475        4.3691301807        0.0000000000
H        -5.4982573067        2.6439341475        0.0000000000
H        -4.8996474780        0.2270197072        0.0000000000
