 38

C         5.7981325738       -0.9835526341        0.0000000000
C         5.4486685108        0.3464089017        0.0000000000
C         3.4733167613       -1.6230540230        0.0000000000
C         4.8019861877       -1.9759094077        0.0000000000
C         3.0888842980       -0.2631088223        0.0000000000
C         4.0878459299        0.7267962825        0.0000000000
C         3.7174038222        2.1122828496        0.0000000000
C         2.4127603831        2.4798746422        0.0000000000
C         1.6983434604        0.1290915380        0.0000000000
C         1.3689441844        1.4958407348        0.0000000000
C         0.0106363845        1.9134943207        0.0000000000
C         0.6697241280       -0.8510359450        0.0000000000
C        -0.6346881319       -0.4441091408        0.0000000000
C        -0.9701394144        0.9616017142        0.0000000000
C        -1.8839835429       -1.2160965348        0.0000000000
C        -4.6008782063       -1.9622873699        0.0000000000
C        -3.5920533691       -2.8956148556        0.0000000000
C        -2.2130241908       -2.5430427458        0.0000000000
C        -2.9379650690       -0.2510693765        0.0000000000
C        -2.4335482238        1.0859872840        0.0000000000
C        -3.3263173414        2.1213811683        0.0000000000
C        -4.7160014876        1.8130910596        0.0000000000
C        -5.1945164858        0.5247400479        0.0000000000
C        -4.2887574948       -0.5734526707        0.0000000000
H         6.8522726974       -1.2793156203        0.0000000000
H         6.2200943010        1.1248858875        0.0000000000
H         2.6833470268       -2.3896352939        0.0000000000
H         5.0933911449       -3.0312615557        0.0000000000
H         4.5154497801        2.8636037678        0.0000000000
H         2.1271151097        3.5382045983        0.0000000000
H        -0.2347373737        2.9814065855        0.0000000000
H         0.9442707272       -1.9167587259        0.0000000000
H        -5.6517015450       -2.2706657779        0.0000000000
H        -3.8459485007       -3.9614506057        0.0000000000
H        -1.4482604914       -3.3257824269        0.0000000000
H        -2.9974631294        3.1651649986        0.0000000000
H        -5.4238665499        2.6493928495        0.0000000000
H        -6.2713000334        0.3250769387        0.0000000000
