 40

C         5.3394795491        1.6228865667        0.0000000000
C         4.5043820090        2.7301174723        0.0000000000
C         3.1109484347        2.5858503924        0.0000000000
C         4.8180528863        0.3227602549        0.0000000000
C         3.4476794947        0.1656766471        0.0000000000
C         2.5832818168        1.3115604078        0.0000000000
C         2.6190361532       -1.0487126005        0.0000000000
C         1.7257927914       -3.2860181577        0.0000000000
C         2.8342245190       -2.4127656744        0.0000000000
C         1.2821755935       -0.5861618695        0.0000000000
C         1.1869404496        0.8496835867        0.0000000000
C        -0.0462155298        1.4229667847        0.0000000000
C        -1.2210830929        0.5812896446        0.0000000000
C        -3.4990647144       -1.1297878829        0.0000000000
C         0.1847658598       -1.4239499582        0.0000000000
C        -1.1056076965       -0.8172663356        0.0000000000
C        -2.2405960529       -1.6837637451        0.0000000000
C        -2.0088432194       -3.1177958339        0.0000000000
C        -0.7693565084       -3.6590872100        0.0000000000
C         0.4112965049       -2.8221360663        0.0000000000
C        -3.6617493000        0.2827819110        0.0000000000
C        -2.5395859484        1.1411627728        0.0000000000
C        -2.7488715527        2.5454355957        0.0000000000
C        -4.0152660635        3.0653596444        0.0000000000
C        -5.1370950780        2.2066193095        0.0000000000
C        -4.9661990370        0.8483478557        0.0000000000
H         6.4255868667        1.7627430569        0.0000000000
H         4.9372317856        3.7359951436        0.0000000000
H         2.4571389366        3.4635700538        0.0000000000
H         5.4818936757       -0.5474605810        0.0000000000
H         1.9077511866       -4.3668307304        0.0000000000
H         3.8501188996       -2.8207549610        0.0000000000
H        -0.1910118880        2.5137689938        0.0000000000
H        -4.3907753344       -1.7686190492        0.0000000000
H        -2.8956148805       -3.7628058308        0.0000000000
H        -0.6269386268       -4.7455148836        0.0000000000
H        -1.8632513462        3.1994182862        0.0000000000
H        -4.1715521207        4.1490301710        0.0000000000
H        -6.1419507179        2.6414543913        0.0000000000
H        -5.8326459511        0.1769516410        0.0000000000
