 38

C         5.1622955594       -0.2924571700        0.3373865349
C         4.5898886085        0.8915552139       -0.0445241938
C         2.9770397123       -1.3015477093        0.5194549728
C         4.3385799511       -1.3918469402        0.6505945019
C         2.3473685972       -0.1101656281        0.0699697912
C         3.1800445492        1.0097752237       -0.1466178618
C         2.6041108227        2.2821988617       -0.4196927466
C         1.2536315488        2.4323167916       -0.3848309512
C         0.9197928326        0.0264430822       -0.0975689453
C         0.3917174589        1.3138886725       -0.1914216118
C         0.0021528365       -1.1083121710       -0.1788042576
C        -1.8230696910       -3.2705625896       -0.2384183870
C        -0.4809649153       -3.4735502876       -0.5031797556
C         0.4159717743       -2.4083001925       -0.4754715128
C        -1.0391031169        1.5528742507       -0.0756187090
C        -1.5755293204        2.8416584223       -0.0538255526
C        -2.9408016994        3.0456106456        0.1248716185
C        -3.7989265667        1.9685247773        0.2730959385
C        -1.9097696315        0.4498251555        0.0631609784
C        -3.2953102922        0.6618784727        0.2329737906
C        -4.1745370836       -0.4725948982        0.3375352826
C        -3.6954790167       -1.7302231320        0.2099674325
C        -2.2932251341       -1.9705490797       -0.0119626811
C        -1.3907166882       -0.8844305163       -0.0241996498
H         6.2495177024       -0.3901428795        0.4184556975
H         5.2112492660        1.7678111912       -0.2627195156
H         2.3593520316       -2.1702084962        0.7852439834
H         4.7979611304       -2.3199301107        1.0067886111
H         3.2633653957        3.1350343371       -0.6175126288
H         0.7994026868        3.4259426907       -0.5183552613
H        -2.5227993905       -4.1136564535       -0.2255474705
H        -0.1140489950       -4.4799037657       -0.7316092697
H         1.4724498479       -2.6146591456       -0.6950891742
H        -0.9072738114        3.7072536352       -0.1762106208
H        -3.3359367096        4.0667029766        0.1470795329
H        -4.8733272119        2.1316063749        0.4140156050
H        -5.2408896722       -0.2864128355        0.5090295617
H        -4.3628355818       -2.5977711261        0.2694152887
