 38

C         1.4268341088        2.6644909671        0.0000000000
C         1.8084722841        1.2855107547        0.0000000000
C         3.1992587321        0.9436785140        0.0000000000
C         4.1567523821        2.0124665382        0.0000000000
C         3.7555300075        3.3116125694        0.0000000000
C         2.3698611968        3.6439106664        0.0000000000
C         3.6387305934       -0.3883257217        0.0000000000
C         2.7125237821       -1.4381653087        0.0000000000
C         1.3593297715       -1.0826550019        0.0000000000
C         0.8825617962        0.2423666610        0.0000000000
C         2.9902075452       -2.8446924474        0.0000000000
C         1.9678232938       -3.7514384717        0.0000000000
C         0.5878915386       -3.3679575403        0.0000000000
C         0.2857478035       -2.0415628204        0.0000000000
C        -0.5832590427        0.1556518711        0.0000000000
C        -1.5384597529        1.1260947623        0.0000000000
C        -2.9137445526        0.7399832230        0.0000000000
C        -3.2691901716       -0.6267232185        0.0000000000
C        -2.2561632146       -1.6355541799        0.0000000000
C        -0.9508677155       -1.2515358153        0.0000000000
C        -4.6410279176       -0.9850019940        0.0000000000
C        -5.6116443574       -0.0164631003        0.0000000000
C        -5.2564063572        1.3490673391        0.0000000000
C        -3.9369080405        1.7217230756        0.0000000000
H        -6.0470403744        2.1065291813        0.0000000000
H        -6.6711761841       -0.2925783334        0.0000000000
H        -4.9114694211       -2.0470422552        0.0000000000
H        -3.6551108752        2.7807447245        0.0000000000
H        -2.5420270613       -2.6931917732        0.0000000000
H        -1.2599729171        2.1908777539        0.0000000000
H        -0.1893324378       -4.1384038095        0.0000000000
H         2.1943264205       -4.8234176463        0.0000000000
H         4.0353628021       -3.1721804758        0.0000000000
H         4.7125562248       -0.6096550642        0.0000000000
H         5.2223692467        1.7551818804        0.0000000000
H         4.4896679185        4.1240127319        0.0000000000
H         2.0818817104        4.7002155773        0.0000000000
H         0.3508502120        2.8993744919        0.0000000000
