 38

C        -6.3266927661        0.3881114283        0.0000000000
C        -6.2538017533       -1.0334379091        0.0000000000
C        -5.0473138709       -1.6641932369        0.0000000000
C        -5.1910551940        1.1389607926        0.0000000000
C        -3.9056100202        0.5098971473        0.0000000000
C        -3.8329592468       -0.9069367142        0.0000000000
C        -2.5819119692       -1.5368255180        0.0000000000
C        -2.7255520679        1.2644474670        0.0000000000
C        -1.4812358975        0.6379701258        0.0000000000
C        -1.4081989306       -0.7863566061        0.0000000000
C        -0.1245076569       -1.4396622571        0.0000000000
C        -0.2711018724        1.4191687829        0.0000000000
C         0.9224229716        0.7802573885        0.0000000000
C         0.9974772249       -0.6820389559        0.0000000000
C         2.2937961194        1.3034307422        0.0000000000
C         5.1004802249        1.5412910390        0.0000000000
C         4.2795374564        2.6433520414        0.0000000000
C         2.8596048719        2.5482110776        0.0000000000
C         4.5397787438        0.2330398963        0.0000000000
C         3.1523977556        0.1617228291        0.0000000000
C         2.4153007811       -1.0620089589        0.0000000000
C         3.1058432619       -2.2421710555        0.0000000000
C         4.5280925221       -2.1912465734        0.0000000000
C         5.2317026499       -1.0108562472        0.0000000000
H        -7.3127465108        0.8640403139        0.0000000000
H        -7.1859947147       -1.6077435044        0.0000000000
H        -4.9812126826       -2.7580612161        0.0000000000
H        -5.2371943190        2.2338523783        0.0000000000
H        -2.5287944793       -2.6326434449        0.0000000000
H        -2.7848325273        2.3599483998        0.0000000000
H        -0.0794221784       -2.5343975367        0.0000000000
H        -0.3382695685        2.5127616651        0.0000000000
H         6.1899750654        1.6520901442        0.0000000000
H         4.7239259635        3.6448188198        0.0000000000
H         2.2500582714        3.4570584312        0.0000000000
H         2.5928444161       -3.2088173153        0.0000000000
H         5.0726905361       -3.1419450188        0.0000000000
H         6.3268138185       -1.0091666241        0.0000000000
