 42

C        -4.8146912851        2.8007669288        0.4348670668
C        -5.8243668110        1.8475292403        0.1312623532
C        -5.4969486524        0.5470761562       -0.1133945829
C        -3.5031854267        2.4313161755        0.4783713760
C        -3.1251607869        1.0782741026        0.2167551445
C        -4.1322269477        0.1281535654       -0.0698828642
C        -3.7622930341       -1.2101136649       -0.2735269701
C        -1.7772439607        0.6811041359        0.2332841586
C        -1.3930285650       -0.6268182442       -0.0390493580
C        -2.4280097544       -1.5931637630       -0.2292435496
C        -2.0975014198       -2.9933987156       -0.2989440942
C        -0.8274731207       -3.4014851741       -0.1026031856
C        -0.0015027438       -1.0696453479       -0.0545959201
C         0.2389020373       -2.4459763880        0.0495014648
C         1.5472007539       -2.9409267522        0.2791534563
C         2.6046104148       -2.0823847552        0.3563867040
C         1.1358928461       -0.1989926578       -0.1634719229
C         2.4234224782       -0.6998795197        0.1000373056
C         2.1083818290        1.9820071612       -0.6847353950
C         1.0323406320        1.1606733969       -0.6133019567
C         3.4078477177        1.5214318791       -0.3024522216
C         3.5710303077        0.1788854789        0.0776000041
C         4.8638614425       -0.2739477350        0.4296749845
C         5.9377030051        0.5836439801        0.4103876019
C         5.7663286373        1.9280296023        0.0340539692
C         4.5214525222        2.3911819772       -0.3194953146
H        -5.1100526298        3.8364290137        0.6324457588
H        -6.8680726876        2.1768684751        0.0994031523
H        -6.2674665232       -0.1968289149       -0.3448698175
H        -2.7192300844        3.1606342892        0.7118891389
H        -4.5425770897       -1.9614618172       -0.4489313995
H        -1.0227799484        1.4440476074        0.4745147354
H        -2.9067507437       -3.7118951904       -0.4728633555
H        -0.5720794360       -4.4675469037       -0.0849311660
H         1.6939521383       -4.0196826946        0.4080448289
H         3.6171941220       -2.4493060464        0.5831965237
H         2.0049468108        3.0128113325       -1.0431691860
H         0.0506522989        1.5368888805       -0.9327546182
H         4.9920875928       -1.3277080957        0.7199320611
H         6.9346331883        0.2261605370        0.6881539405
H         6.6315299669        2.5988174886        0.0246584959
H         4.3776102415        3.4359027173       -0.6174864851
