 38

C         5.1461658321        1.5579829758        0.0000000000
C         4.2566466126        2.6225018215        0.0000000000
C         2.8724316875        2.4089068846        0.0000000000
C         4.6900854654        0.2337122799        0.0000000000
C         3.3286881783        0.0101606210        0.0000000000
C         2.4104562760        1.1088575998        0.0000000000
C         1.0420292529        0.5746352422        0.0000000000
C        -0.2081538155        1.1054727720        0.0000000000
C        -1.1896210539       -1.1728720833        0.0000000000
C        -1.3452602283        0.2213977698        0.0000000000
C        -3.5881119364       -1.5130067031        0.0000000000
C        -2.3311414838       -2.0285737154        0.0000000000
C         1.1887595334       -0.8550640369        0.0000000000
C         0.1308661778       -1.7469546300        0.0000000000
C         0.4709878389       -3.1237915223        0.0000000000
C         1.7936483379       -3.5103020272        0.0000000000
C         2.8635658644       -2.5787226310        0.0000000000
C         2.5597225779       -1.2418025049        0.0000000000
C        -3.7885625265       -0.0976016999        0.0000000000
C        -2.6789448180        0.7693656389        0.0000000000
C        -2.9094560622        2.1672705452        0.0000000000
C        -4.1863622141        2.6696806319        0.0000000000
C        -5.2929909526        1.7980787880        0.0000000000
C        -5.0989652308        0.4395448167        0.0000000000
H         6.2239386731        1.7518735264        0.0000000000
H         4.6389382604        3.6486708091        0.0000000000
H         2.1747817820        3.2522364257        0.0000000000
H         5.3956138704       -0.6030971564        0.0000000000
H        -0.3818805793        2.1918861349        0.0000000000
H        -4.4666220296       -2.1682639767        0.0000000000
H        -2.1472262903       -3.1135931935        0.0000000000
H        -0.3476272579       -3.8574317965        0.0000000000
H         2.0400985789       -4.5777381656        0.0000000000
H         3.8997783075       -2.9307418482        0.0000000000
H        -2.0401612106        2.8422274929        0.0000000000
H        -4.3555653030        3.7514440342        0.0000000000
H        -6.3051941662        2.2153394415        0.0000000000
H        -5.9539561137       -0.2462091441        0.0000000000
