 38

C         3.6079306219       -2.9698979797        0.0000000000
C         4.6831906974       -2.0929253034        0.0000000000
C         4.4852409969       -0.7066849939        0.0000000000
C         2.2905973304       -2.4973696983        0.0000000000
C         2.0791673129       -1.1327825746        0.0000000000
C         3.1905673436       -0.2296767400        0.0000000000
C         2.6716520817        1.1435379871        0.0000000000
C         3.2161168965        2.3933797169        0.0000000000
C         2.3336356721        3.5165454366        0.0000000000
C         0.9692631712        3.3908428992        0.0000000000
C         1.2425443997        1.0130006101        0.0000000000
C         0.3660828821        2.0953059629        0.0000000000
C        -1.0086395000        1.7869169097        0.0000000000
C         0.8374704005       -0.3453350980        0.0000000000
C        -0.5182102032       -0.6335714307        0.0000000000
C        -1.4440304504        0.4637497190        0.0000000000
C        -2.3358569642       -2.2483704973        0.0000000000
C        -1.0124965853       -1.9872368158        0.0000000000
C        -3.3015949808       -1.1773861294        0.0000000000
C        -2.8690354698        0.1600533393        0.0000000000
C        -3.8347308656        1.1846121762        0.0000000000
C        -5.1817621846        0.8860649574        0.0000000000
C        -5.6072968935       -0.4480183858        0.0000000000
C        -4.6785493247       -1.4685034373        0.0000000000
H         3.7884113991       -4.0499403090        0.0000000000
H         5.7047854014       -2.4872087973        0.0000000000
H         5.3362227038       -0.0183417351        0.0000000000
H         1.4364380966       -3.1892649037        0.0000000000
H         4.2990180057        2.5515678713        0.0000000000
H         2.7837363808        4.5154822993        0.0000000000
H         0.3218680746        4.2742053963        0.0000000000
H        -1.7490526713        2.6020921846        0.0000000000
H        -2.7094625662       -3.2789309730        0.0000000000
H        -0.2675232139       -2.7984987878        0.0000000000
H        -3.4952702138        2.2316616661        0.0000000000
H        -5.9233105104        1.6916002547        0.0000000000
H        -6.6781361769       -0.6759263252        0.0000000000
H        -5.0059134985       -2.5145376399        0.0000000000
