 38

C         5.5810559520       -0.0260154188        0.0000000000
C         5.4335612321        1.3694104749        0.0000000000
C         4.1778958888        1.9361841511        0.0000000000
C         4.4687097499       -0.8385624449        0.0000000000
C         3.1762255928       -0.2800528661        0.0000000000
C         3.0221760280        1.1262635624        0.0000000000
C         1.7186023715        1.7545848085        0.0000000000
C         2.0000739190       -1.1222710181        0.0000000000
C        -0.4983233516       -2.5005021833        0.0000000000
C         0.7356564731       -3.1895235880        0.0000000000
C         1.9529539686       -2.5356610065        0.0000000000
C         0.7811161766       -0.4680595241        0.0000000000
C         0.6176777660        0.9663653033        0.0000000000
C        -0.4792041995       -1.1256652248        0.0000000000
C        -1.4913923509       -0.0586454563        0.0000000000
C        -0.8349824237        1.1876463153        0.0000000000
C        -1.5555984502        2.3897397163        0.0000000000
C        -2.9300554418        2.3362585629        0.0000000000
C        -2.9004303285       -0.1256383258        0.0000000000
C        -3.6183472091        1.0957753291        0.0000000000
C        -5.0420202702        1.0560017535        0.0000000000
C        -5.7033580135       -0.1399209482        0.0000000000
C        -4.9826595545       -1.3595707606        0.0000000000
C        -3.6165005670       -1.3554303340        0.0000000000
H         6.5846779434       -0.4636092238        0.0000000000
H         6.3249546029        2.0053162105        0.0000000000
H         4.0657449130        3.0266749261        0.0000000000
H         4.5654761152       -1.9330570918        0.0000000000
H         1.6518502425        2.8482020897        0.0000000000
H        -1.4513401301       -3.0484385476        0.0000000000
H         0.7170688178       -4.2848575090        0.0000000000
H         2.8980167891       -3.0945338308        0.0000000000
H        -1.0211743351        3.3452630161        0.0000000000
H        -3.5166835677        3.2622521426        0.0000000000
H        -5.5953591938        2.0020753506        0.0000000000
H        -6.7978316379       -0.1710441821        0.0000000000
H        -5.5369135330       -2.3037627921        0.0000000000
H        -3.0412868657       -2.2943731353        0.0000000000
