 42

C         5.1497506327       -2.7234627577        0.0000000000
C         6.1095661470       -1.6778271375        0.0000000000
C         5.7117618346       -0.3724291354        0.0000000000
C         3.8151621602       -2.4384736760        0.0000000000
C         3.3679028740       -1.0839674475        0.0000000000
C         4.3240007586       -0.0420397849        0.0000000000
C         3.8887754844        1.2982119596        0.0000000000
C         1.9959864370       -0.7650542479        0.0000000000
C         1.5722625137        0.5531447358        0.0000000000
C         2.5376532458        1.6010934290        0.0000000000
C         2.0917728197        2.9771449514        0.0000000000
C         0.7806190906        3.2875165299        0.0000000000
C         0.1562451844        0.8941196900        0.0000000000
C        -0.2324736553        2.2560288379        0.0000000000
C        -1.5836468987        2.5907339424        0.0000000000
C        -0.8237525128       -0.0935713175        0.0000000000
C        -2.1845511529        0.2340682372        0.0000000000
C        -2.5671077580        1.5934899060        0.0000000000
C        -3.9645605932        1.9394100513        0.0000000000
C        -4.9177435831        0.9801638955        0.0000000000
C        -3.2085908990       -0.7909752983        0.0000000000
C        -4.5628398169       -0.4145005266        0.0000000000
C        -5.5618083014       -1.4092509156        0.0000000000
C        -5.2152378730       -2.7428971103        0.0000000000
C        -3.8638933685       -3.1210284009        0.0000000000
C        -2.8762699760       -2.1608691720        0.0000000000
H         5.4988024163       -3.7612606591        0.0000000000
H         7.1733717725       -1.9370257403        0.0000000000
H         6.4461056598        0.4409638064        0.0000000000
H         3.0673585588       -3.2394011750        0.0000000000
H         4.6342648278        2.1031358779        0.0000000000
H         1.2452423938       -1.5719189454        0.0000000000
H         2.8579294559        3.7612898907        0.0000000000
H         0.4464888487        4.3315996365        0.0000000000
H        -1.8842749648        3.6459696513        0.0000000000
H        -0.5249004837       -1.1595986173        0.0000000000
H        -4.2326430845        3.0022580264        0.0000000000
H        -5.9822787253        1.2414190458        0.0000000000
H        -6.6159993124       -1.1095536923        0.0000000000
H        -5.9915887512       -3.5149481187        0.0000000000
H        -3.5999448697       -4.1835673383        0.0000000000
H        -1.8114123009       -2.4403529964        0.0000000000
