 42

C        -2.7564486624       -3.6304488101        0.7455823757
C        -3.6605260286       -2.8559465005        0.0611472889
C        -1.2703008578       -1.7409667313        0.9577460006
C        -1.5644134086       -3.0567479596        1.2231841955
C        -2.1528315219       -0.9339786444        0.1989126828
C        -3.3896679143       -1.4897896927       -0.1857199667
C        -4.4022274747       -0.6547694027       -0.7569987750
C        -4.2222105529        0.6884962794       -0.8058284600
C        -1.8826840612        0.4592907869       -0.0823814654
C        -2.9767981801        1.2719195544       -0.4082639891
C        -2.8760088690        2.6905702052       -0.3124873412
C        -1.7204043729        3.2626975526        0.1212159472
C        -0.5873699130        1.0848704351        0.0319915031
C        -0.5501757626        2.4660268178        0.2904091125
C         0.6690496347        3.0903881003        0.6830536202
C         1.8294989201        2.3806128614        0.7055382354
C         0.6723270502        0.4166980348       -0.1734845031
C         1.8629038031        1.0434831467        0.2150679761
C         1.9435345094       -1.4498143052       -1.0870520892
C         0.7554331660       -0.8249448699       -0.8857724903
C         3.1582950635       -0.8900955376       -0.5801296700
C         3.1240490677        0.3601125487        0.0618549911
C         4.3350736678        0.9169904941        0.5366676564
C         5.5225866731        0.2440246606        0.3839223451
C         5.5511223906       -1.0099590485       -0.2549941176
C         4.3900570544       -1.5683230265       -0.7317377031
H        -2.9634010835       -4.6876892091        0.9400820755
H        -4.6087881686       -3.2813444508       -0.2867406113
H        -0.1693109967       -1.2548745876       -1.2926207563
H        -0.8724314573       -3.6670698771        1.8128762194
H        -5.3340769055       -1.1167629966       -1.1020080094
H        -5.0184322430        1.3525011308       -1.1616718829
H        -3.7564022858        3.3005874579       -0.5446321031
H        -1.6555651450        4.3420252196        0.2998051645
H         0.6501636153        4.1471733887        0.9731688116
H         2.7717485416        2.8330482115        1.0504147277
H         1.9947646064       -2.3916950277       -1.6453240933
H        -0.3453425362       -1.2977217329        1.3494647996
H         4.3013373208        1.9003250449        1.0298779508
H         6.4560110532        0.6777243110        0.7572044922
H         6.5061384467       -1.5331366224       -0.3685189187
H         4.4027656176       -2.5426605139       -1.2332222499
