 38

C        -0.5276312254        0.2752034297        0.0000000000
C        -1.3052194852        1.4392062313        0.0000000000
C         5.3034788056       -1.6738922652        0.0000000000
C         5.8966449024       -0.3767941434        0.0000000000
C         5.1199298990        0.7385991041        0.0000000000
C         3.9517719019       -1.8157623248        0.0000000000
C         3.0981571728       -0.6631506089        0.0000000000
C         3.6896813655        0.6309696576        0.0000000000
C         2.8775623695        1.7647037427        0.0000000000
C         1.7099720176       -0.7886276863        0.0000000000
C         0.8929065687        0.3473251534        0.0000000000
C         1.4825273925        1.6461956987        0.0000000000
C         0.6522064629        2.8131063106        0.0000000000
C        -0.7104712649        2.7200733201        0.0000000000
C        -1.4205956005       -0.8932500183        0.0000000000
C        -3.7114016142       -2.5390237893        0.0000000000
C        -2.4399772718       -3.0632149780        0.0000000000
C        -1.2708010793       -2.2532831850        0.0000000000
C        -3.9015638069       -1.1284520157        0.0000000000
C        -2.7466050722       -0.3593193433        0.0000000000
C        -2.7278918539        1.0698924417        0.0000000000
C        -3.9220977981        1.7356590227        0.0000000000
C        -5.1208476983        0.9675107502        0.0000000000
C        -5.1290913375       -0.4072464036        0.0000000000
H         5.9597101062       -2.5503229978        0.0000000000
H         6.9888251154       -0.2999606723        0.0000000000
H         5.5666991010        1.7392916604        0.0000000000
H         3.4864744933       -2.8078795536        0.0000000000
H         3.3366999439        2.7612127850        0.0000000000
H         1.2420657698       -1.7870409667        0.0000000000
H         1.1405973905        3.7945324262        0.0000000000
H        -1.3486993055        3.6096200462        0.0000000000
H        -4.5887976157       -3.1943978649        0.0000000000
H        -2.3071384396       -4.1507636310        0.0000000000
H        -0.2703396877       -2.7093923191        0.0000000000
H        -3.9722962750        2.8289727129        0.0000000000
H        -6.0730726308        1.5096000228        0.0000000000
H        -6.0726174307       -0.9632391775        0.0000000000
