 46

C         6.0531725369        1.2715148523       -0.5988098325
C         6.5483157782       -0.0311672315       -0.2924984708
C         5.6921718745       -1.0435977401        0.0050355905
C         4.7180017562        1.5249212598       -0.5892539510
C         3.7822198734        0.4857160657       -0.2677454431
C         4.2760576157       -0.8158928892        0.0177010834
C         3.3695091113       -1.8396412757        0.2720048596
C         2.4112304720        0.7315758576       -0.2286479171
C         1.4841606833       -0.2703890953        0.0942948119
C         1.9885019669       -1.5924145248        0.2762784482
C         1.0893556957       -2.6854940491        0.4010165622
C        -0.2612932889       -2.4881374038        0.2689411105
C        -1.1643482734       -3.6181435955        0.2521081532
C        -2.4885233039       -3.4544951907        0.0610417234
C        -3.0481512466       -2.1356497933       -0.1050204103
C        -4.4254021778       -1.9698495953       -0.3481227526
C        -4.9666032390       -0.7117200468       -0.4898973369
C        -2.2105901580       -1.0131704885       -0.0218430898
C         0.0598927836       -0.0465456610        0.1800506598
C        -0.7853763852       -1.1570547310        0.1487294772
C        -0.5457010571        1.2790130875        0.2925516860
C        -1.7657453458        3.8343275996        0.3844323328
C        -0.4378921392        3.6734228802        0.7314077243
C         0.1601490806        2.4146827893        0.6914312353
C        -2.5356845614        2.7085598666        0.0582257343
C        -1.9385521298        1.4288276043        0.0527746280
C        -2.7731584502        0.2806492089       -0.1364234928
C        -4.1521739817        0.4312566527       -0.3713673908
C        -4.7098792409        1.7516853643       -0.4571937811
C        -3.9352956333        2.8416466716       -0.2436968282
H         6.7720550787        2.0610088177       -0.8412285434
H         7.6306211438       -0.1962496388       -0.3042247834
H         6.0603192298       -2.0487774881        0.2390955840
H         4.3298362409        2.5224973181       -0.8243258741
H         3.7364532624       -2.8575951780        0.4544811602
H         2.0619088969        1.7466189823       -0.4685056143
H         1.4948531752       -3.6928859579        0.5588559869
H        -0.7319520146       -4.6168911828        0.3844931946
H        -3.1697894945       -4.3123976891        0.0286332552
H        -5.0648507304       -2.8569311944       -0.4240426251
H        -6.0381762517       -0.5883113261       -0.6840394342
H        -2.2262376556        4.8285517351        0.3849604339
H         0.1559468223        4.5403629155        1.0402818541
H         1.2164669413        2.3351673830        0.9833388265
H        -5.7773142476        1.8506295395       -0.6849802409
H        -4.3582329641        3.8518813221       -0.2893602751
