 44

C        -6.8783057395        0.7093920089        0.0000000000
C        -6.8775191984       -0.7170096589        0.0000000000
C        -5.7070728887       -1.4076377278        0.0000000000
C        -5.7086133103        1.4013082546        0.0000000000
C        -4.4520782978        0.7093153348        0.0000000000
C        -4.4512921977       -0.7142735752        0.0000000000
C        -3.2412808363       -1.4068192705        0.0000000000
C        -3.2428304583        1.4031935138        0.0000000000
C        -2.0266368700        0.7090564683        0.0000000000
C        -2.0258502344       -0.7113436997        0.0000000000
C        -0.7773488848       -1.3974235784        0.0000000000
C        -0.7788961889        1.3965158456        0.0000000000
C         0.4148996189        0.7191653869        0.0000000000
C         0.4157134809       -0.7187450881        0.0000000000
C         1.6862728808       -1.4408706586        0.0000000000
C         1.7244275049       -2.8304045841        0.0000000000
C         2.9428151488       -3.5150499405        0.0000000000
C         4.1343059102       -2.8189472103        0.0000000000
C         1.6846321905        1.4427222231        0.0000000000
C         4.1311218421        2.8235830569        0.0000000000
C         2.9388131251        3.5183600315        0.0000000000
C         1.7211838335        2.8323073213        0.0000000000
C         2.9025585681        0.7210123638        0.0000000000
C         2.9033619776       -0.7177777594        0.0000000000
C         4.1284593711       -1.4120999868        0.0000000000
C         5.3622037423       -0.6736619751        0.0000000000
C         5.3614558302        0.6796472635        0.0000000000
C         4.1268919622        1.4167078721        0.0000000000
H        -7.8398611212        1.2330557087        0.0000000000
H        -7.8385007316       -1.2417262750        0.0000000000
H        -5.6965755683       -2.5034847889        0.0000000000
H        -5.6993156747        2.4971657750        0.0000000000
H        -3.2395761798       -2.5037374266        0.0000000000
H        -3.2423344475        2.5001120998        0.0000000000
H        -0.7780972991       -2.4996933189        0.0000000000
H        -0.7808581420        2.4987811182        0.0000000000
H         0.7782766432       -3.3932575737        0.0000000000
H         2.9446675217       -4.6100704282        0.0000000000
H         5.0907452462       -3.3538573273        0.0000000000
H         5.0869587524        3.3595798368        0.0000000000
H         2.9394099055        4.6133854714        0.0000000000
H         0.7743928523        3.3940848940        0.0000000000
H         6.3018322683       -1.2380504056        0.0000000000
H         6.3004631563        1.2450665654        0.0000000000
