 46

C         0.9701314085        0.2538315051        0.0000000000
C         1.5305194393       -1.0718203787        0.0000000000
C         2.8892061858       -1.2379043283        0.0000000000
C         3.7754946591       -0.1204517889        0.0000000000
C         3.2514553282        1.1844000798        0.0000000000
C         1.8221458278        1.3679891341        0.0000000000
C         5.1780478957       -0.3115802182        0.0000000000
C         6.0246355560        0.7699027246        0.0000000000
C         5.5030016862        2.0775908601        0.0000000000
C         4.1447044138        2.2812437291        0.0000000000
C        -0.4438678839        0.4446265518        0.0000000000
C        -1.3258737795       -0.6950223750        0.0000000000
C        -0.7743619919       -2.0165993855        0.0000000000
C         0.6325530204       -2.2246997217        0.0000000000
C        -1.6369154079       -3.1308702041        0.0000000000
C        -3.0485346173       -2.9227911563        0.0000000000
C        -3.5602610920       -1.6623819580        0.0000000000
C        -2.7072728215       -0.5183481800        0.0000000000
C        -0.9756935505        1.7374945162        0.0000000000
C        -2.4091880313        1.9306159926        0.0000000000
C        -3.2655723635        0.8155455800        0.0000000000
C         1.1276811532       -3.5173865473        0.0000000000
C         0.2624524259       -4.6231212831        0.0000000000
C        -1.0987128541       -4.4385623412        0.0000000000
C        -4.6624587705        1.0229885203        0.0000000000
C        -5.1882434811        2.2944069732        0.0000000000
C        -4.3333350701        3.4073673560        0.0000000000
C        -2.9693630365        3.2268761084        0.0000000000
C         1.2596633833        2.6709825857        0.0000000000
C        -0.0939596039        2.8495411047        0.0000000000
H         6.1899896250        2.9301172611        0.0000000000
H         7.1098394265        0.6246623157        0.0000000000
H         5.5765710709       -1.3324498345        0.0000000000
H         3.7237370222        3.2982703337        0.0000000000
H         3.3161756075       -2.2541699402        0.0000000000
H        -3.7088891220       -3.7975197351        0.0000000000
H        -4.6484443730       -1.4962225040        0.0000000000
H         2.2170430953       -3.6770443487        0.0000000000
H         0.6855254213       -5.6330811749        0.0000000000
H        -1.7802137490       -5.2967161586        0.0000000000
H        -5.3255401637        0.1445082091        0.0000000000
H        -6.2727315576        2.4444415526        0.0000000000
H        -4.7577782465        4.4165515087        0.0000000000
H        -2.2908611430        4.0935681357        0.0000000000
H        -0.5274806837        3.8613337597        0.0000000000
H         1.9447618516        3.5328417649        0.0000000000
