 44

C         0.9894038902       -1.2591620210       -0.1286510366
C         0.4402523980       -2.5187110020       -0.1709484030
C         2.1350031043        1.3433482738        0.1877679885
C         2.6795581452        2.6005495584        0.4457635841
C         1.8580933489        3.7094522773        0.6226322092
C         0.4864186087        3.5769193680        0.5076464022
C         0.1322391911       -0.1177413109       -0.0293841435
C         0.7308650359        1.1898489574        0.1135857991
C        -0.0895377680        2.3275694936        0.2342717196
C        -1.2595649062       -0.2715597569       -0.0312747846
C         3.0014274082        0.1888521164       -0.0128775725
C         2.4376665578       -1.0844428692       -0.1847615336
C         3.2855687841       -2.1837985643       -0.3962633257
C         4.6590673248       -2.0253241381       -0.4343346481
C         5.2188861087       -0.7594600699       -0.2561217739
C         4.3975389703        0.3334119222       -0.0469335970
C        -2.0818448376        0.9216875504       -0.1979605795
C        -1.5156160736        2.1946614827        0.0045660051
C        -2.3215206579        3.3451948980       -0.0936001323
C        -3.6469795975        3.2544577382       -0.4608359666
C        -4.1902167105        2.0025848407       -0.7638958384
C        -3.4199625159        0.8648131034       -0.6369967265
C        -0.9498358997       -2.7079451843        0.0055688839
C        -1.8057592700       -1.5912065179        0.1297824100
C        -3.1590862384       -1.8519053122        0.4837921315
C        -3.6353999417       -3.1286573353        0.6130950775
C        -2.7874120747       -4.2363184522        0.3961964195
C        -1.4676391857       -4.0287125507        0.1061031791
H         1.0905302213       -3.3990478528       -0.3003704037
H         3.7731765008        2.7095482539        0.5075498167
H         2.3004443260        4.6868884889        0.8410050333
H        -0.1685221712        4.4546189621        0.6163476588
H         2.8406270002       -3.1816696105       -0.5297752197
H         5.3075167238       -2.8912774605       -0.6022806035
H         6.3060271063       -0.6332560834       -0.2826184432
H         4.8313696378        1.3348793361        0.0963061016
H        -1.8697639795        4.3268132013        0.1164623104
H        -4.2662116870        4.1541058172       -0.5339609769
H        -5.2277694553        1.9278060187       -1.1057224936
H        -3.8680890524       -0.1056926952       -0.8904271779
H        -3.8378137083       -1.0082185521        0.6689097057
H        -4.6797712763       -3.3033337033        0.8923792116
H        -3.1929226942       -5.2498414097        0.4772483917
H        -0.7868550593       -4.8749637396       -0.0416812175
