 42

C         4.3051835254       -1.6181689417        0.0000000000
C         3.2848706043       -2.5009835766        0.0000000000
C         1.9068764327       -2.0605746207        0.0000000000
C         0.8613581731       -2.9623133476        0.0000000000
C        -0.4783867429       -2.5099641515        0.0000000000
C        -2.8570958524       -2.9944541440        0.0000000000
C        -1.5677823105       -3.4342134243        0.0000000000
C        -3.1521880485       -1.5986971567        0.0000000000
C        -4.7787798212        0.1988191484        0.0000000000
C        -4.5039409753       -1.1325050948        0.0000000000
C        -2.1059797064       -0.6738661704        0.0000000000
C        -0.7502136354       -1.1288134408        0.0000000000
C         0.0568107439        1.2241072643        0.0000000000
C         0.3165192080       -0.1922660970        0.0000000000
C         1.6390736360       -0.6579872781        0.0000000000
C         1.1025685061        2.1082488685        0.0000000000
C         2.4585316284        1.6579690477        0.0000000000
C         2.7240787339        0.2718144056        0.0000000000
C         4.0634608104       -0.1930606018        0.0000000000
C         5.1065764066        0.7261790960        0.0000000000
C         4.8366853834        2.0977007672        0.0000000000
C         3.5355511659        2.5635231387        0.0000000000
C        -3.7241218874        1.1674124437        0.0000000000
C        -2.3848538968        0.7313666888        0.0000000000
C        -1.3308000398        1.6838907380        0.0000000000
C        -1.6417092888        3.0345835820        0.0000000000
C        -2.9761847596        3.4648639845        0.0000000000
C        -4.0052970415        2.5507498099        0.0000000000
H         5.3471611084       -1.9584278222        0.0000000000
H         3.4735382074       -3.5808481422        0.0000000000
H         1.0609828519       -4.0409820611        0.0000000000
H        -3.6912995328       -3.7054202386        0.0000000000
H        -1.3422158251       -4.5068433556        0.0000000000
H        -5.8141695364        0.5584856576        0.0000000000
H        -5.3115281694       -1.8734906636        0.0000000000
H         0.8993457421        3.1915413711        0.0000000000
H         6.1446322318        0.3750344663        0.0000000000
H         5.6700730221        2.8083091895        0.0000000000
H         3.3326279143        3.6403568468        0.0000000000
H        -0.8238746573        3.7717612443        0.0000000000
H        -3.1916907516        4.5384839138        0.0000000000
H        -5.0488287223        2.8852507197        0.0000000000
