 44

C         3.8273332122        2.7227696889        0.0000000000
C         3.1118601639        1.5047519055        0.0000000000
C         3.8147731009        0.2873640666        0.0000000000
C         5.2256590007        0.3085518416        0.0000000000
C         5.9076086484        1.5037988890        0.0000000000
C         5.2034111465        2.7195959200        0.0000000000
C         3.0748371458       -0.9549795349        0.0000000000
C         1.6675682631       -0.9250062236        0.0000000000
C         0.9680938893        0.3359805800        0.0000000000
C         1.6805579516        1.5021492667        0.0000000000
C         0.9453645646       -2.1433674159        0.0000000000
C        -0.4992378233       -2.1088561053        0.0000000000
C        -1.1920330004       -0.9440995795        0.0000000000
C        -0.4966345259        0.3404684375        0.0000000000
C        -2.6558744469       -0.9384093538        0.0000000000
C        -3.3504688337        0.3075890074        0.0000000000
C        -2.6356108665        1.5399721452        0.0000000000
C        -1.1907129666        1.5054752922        0.0000000000
C        -4.7607010481        0.3248278664        0.0000000000
C        -5.4406463878        1.5701846012        0.0000000000
C        -4.7336386967        2.7455209100        0.0000000000
C        -3.3252040466        2.7365297706        0.0000000000
C         3.7374773904       -2.1980421337        0.0000000000
C         3.0223072899       -3.3773935851        0.0000000000
C         1.6242591951       -3.3553124938        0.0000000000
C        -3.3817923030       -2.1121224520        0.0000000000
C        -4.7917979776       -2.0928491576        0.0000000000
C        -5.4724203935       -0.9047492917        0.0000000000
H        -5.2587707780        3.7065260982        0.0000000000
H        -6.5364785759        1.5757920696        0.0000000000
H        -2.7813369444        3.6878757702        0.0000000000
H        -0.6518327027        2.4673537952        0.0000000000
H        -1.0405889647       -3.0694713959        0.0000000000
H         1.0650406180       -4.2977576954        0.0000000000
H         3.5475056126       -4.3382145370        0.0000000000
H         4.8383935878       -2.2042160927        0.0000000000
H        -6.5679693541       -0.8836031954        0.0000000000
H        -5.3342184622       -3.0441135429        0.0000000000
H        -2.8497006863       -3.0759834745        0.0000000000
H         1.1503492179        2.4685451424        0.0000000000
H         5.7627297513       -0.6523855198        0.0000000000
H         7.0024024301        1.5146159615        0.0000000000
H         5.7584400229        3.6633768266        0.0000000000
H         3.2732071071        3.6682602985        0.0000000000
