 44

C         0.7928144650        2.0837762679        1.0466110650
C         2.5231671065        1.0729190380       -1.0468097704
C         2.5338932943       -0.1105927795       -0.2767987881
C         1.3094482437       -0.7668358020        0.1520902024
C         0.0313000734       -0.1503547427        0.2206205354
C        -0.1901113431        1.2747210635        0.4455437493
C         3.7753569860       -0.7291148441       -0.0331046325
C         4.9720273832       -0.0973309782       -0.4296237386
C         4.9341099972        1.0901567708       -1.1253583679
C         3.6980082044        1.6615202756       -1.4608328529
C         1.3973741010       -2.1455589695        0.4584391924
C         2.6800281213       -2.7461663574        0.7191868674
C         3.8215997162       -2.0456248195        0.5430590585
C        -1.1111724670       -0.9709318664        0.1328558196
C        -0.9975579975       -2.3795222222        0.2534865100
C         0.2449302803       -2.9401511217        0.5167534390
C        -2.4084998855       -0.4002818151       -0.1196617304
C        -3.5243028530       -1.2396977660       -0.3255794483
C        -3.3729026905       -2.6657447208       -0.1777243049
C        -2.1710130405       -3.2065594446        0.1157349008
C        -2.5673344538        0.9997236045       -0.1992042461
C        -3.8088486678        1.5308621340       -0.5511157317
C        -4.8936282753        0.6944864842       -0.7942549046
C        -4.7613899319       -0.6800383414       -0.6680826000
C        -1.4468443393        1.8467655736        0.1734990943
C         0.5762349847        3.4314681756        1.2601483384
C        -0.6355974822        4.0164030741        0.8821072451
C        -1.6390939940        3.2273556302        0.3572025992
H         5.8618019491        1.5814490137       -1.4359277643
H         5.9308803512       -0.5725000460       -0.1928747316
H         1.7455553381        1.6319751551        1.3525345486
H         3.6711736361        2.5793434526       -2.0574107434
H         4.7996949090       -2.4772321129        0.7837220049
H         2.7004409989       -3.7807693131        1.0808620099
H         0.3321288752       -4.0126297831        0.7304054621
H        -2.0523531182       -4.2891910539        0.2395084987
H        -4.2611583559       -3.2945571198       -0.3075797179
H        -5.6233774535       -1.3348570328       -0.8388313722
H        -5.8592565997        1.1275500634       -1.0754338548
H        -3.9196381332        2.6241329457       -0.6156656083
H        -2.6154711750        3.6606472229        0.0902892778
H        -0.7926754333        5.0905653851        1.0225959852
H         1.3551012921        4.0441979411        1.7257508862
H         1.5610313908        1.5219739978       -1.3257486207
