 44

C        -3.7437048289       -3.2743718213       -0.3740302482
C        -4.0391765110       -1.9620031483       -0.0672251557
C        -1.4159691385       -2.6906617666       -0.5516612015
C        -2.4219975959       -3.6321215442       -0.6477948803
C        -1.6802796737       -1.3601618549       -0.1742895887
C        -3.0274958401       -0.9871688395       -0.0001587499
C        -2.3920627730        1.3932503054        0.0289071093
C        -3.3831727690        0.4109249264        0.1717642592
C        -4.7120649731        0.7999577000        0.4201680393
C        -5.0553102186        2.1343697490        0.4997843872
C        -4.0753261646        3.1161112602        0.3237260695
C        -2.7648078334        2.7491670173        0.0925390437
C        -0.6235595386       -0.3586181815       -0.0501933166
C        -0.9969140313        1.0004946659       -0.1195150442
C        -0.0223022423        1.9961835070       -0.2838743570
C         1.3268400332        1.6816022144       -0.3043594526
C         2.3282722279        2.6937036302       -0.5402069756
C         3.6444749387        2.3964896085       -0.4926440294
C         4.0894569149        1.0592300465       -0.1853632875
C         5.4469332146        0.7462513971       -0.1089635979
C         5.8539823943       -0.5477747684        0.2057335446
C         4.9193538571       -1.5414539614        0.4540229858
C         1.7242052655        0.3465542235       -0.0456532825
C         3.1248555203        0.0499063299        0.0489726222
C         3.5505784341       -1.2533704234        0.3805807267
C         2.5511926362       -2.2465219695        0.6549759225
C         1.2333220381       -1.9632660971        0.5314934616
C         0.7545864582       -0.6669458752        0.1226678519
H        -4.5379202507       -4.0260884635       -0.4218939845
H        -5.0809154268       -1.6576269055        0.1171450752
H        -0.3860791958       -2.9963692621       -0.7814150737
H        -2.1851807177       -4.6600760715       -0.9413274552
H        -5.4794014352        0.0202535136        0.5407333623
H        -6.0919941630        2.4271470493        0.6948235848
H        -4.3499124447        4.1747323148        0.3744969077
H        -1.9935803199        3.5230197398       -0.0384385759
H        -0.3379639915        3.0457177349       -0.3963175505
H         1.9853662896        3.7109856578       -0.7615975999
H         4.4062944049        3.1621061149       -0.6789244298
H         6.1953677352        1.5245464419       -0.2964576790
H         6.9228380128       -0.7798787174        0.2605230954
H         5.2454965864       -2.5557682107        0.7100114803
H         2.8843241968       -3.2398874372        0.9773828752
H         0.4944098647       -2.7415267758        0.7674343521
