 46

C        -2.8103918090       -2.0685806210        0.2088895214
C        -4.0460267221       -1.4267758815        0.1406596881
C        -4.1141783459       -0.0392549689       -0.0322405646
C        -2.9188470757        0.7203425845       -0.1290658211
C        -1.6612709189        0.0851551441       -0.0446685794
C        -1.6110044994       -1.3103211758        0.1098015659
C        -0.3514904042       -1.9901593561        0.1561146702
C         0.8707986192       -1.2017878706        0.0256229645
C         0.7894153295        0.2554595793        0.1020028726
C        -0.4320775942        0.8671426903       -0.0687758491
C         2.0481214931       -1.8284475104       -0.2300224971
C         3.2871702590       -1.1019589672       -0.3488930844
C         3.2845565232        0.2811068202       -0.0122775640
C         2.0620648220        0.9559701949        0.3039264970
C         2.1486176817        2.2329521048        0.8240453732
C         3.3848158903        2.9039573139        0.9333944264
C         4.5443925251        2.3057026766        0.5229400569
C         4.5154214115        0.9678399450        0.0470425591
C         4.4626394032       -1.7301833085       -0.7133995208
C         5.6727803506       -1.0121953708       -0.7306756108
C         5.7065780669        0.3034477987       -0.3423706000
C        -3.0165368464        2.1377848641       -0.3102869950
C        -1.7856154417        2.8883698538       -0.4302195813
C        -0.5869617956        2.2905603389       -0.3092853399
C        -5.3734522265        0.6304280277       -0.1093245508
C        -5.4318948471        1.9836362167       -0.2767915334
C        -4.2455139348        2.7489433235       -0.3812238560
C        -2.7261226561       -3.4888221209        0.3725319057
C        -1.5143199493       -4.1071935179        0.4184043353
C        -0.3167095237       -3.3550832160        0.3046201444
H         5.5028553436        2.8341769946        0.5727582438
H         1.2424346999        2.7636443531        1.1472550286
H         3.3981611835        3.9211914832        1.3390894959
H         6.6522659108        0.8568605757       -0.3231273083
H         6.5911989747       -1.5218803124       -1.0402918491
H         4.4608182783       -2.7932021598       -0.9791643388
H         2.0765488935       -2.9261250264       -0.3283087139
H        -1.8621440778        3.9630628110       -0.6332571420
H         0.3264002706        2.8932671371       -0.4155118235
H        -6.2893513493        0.0336839265       -0.0306142343
H        -6.3976635600        2.4966846747       -0.3339603172
H        -4.3193556660        3.8333462250       -0.5205515667
H        -4.9709561351       -2.0114381605        0.2186634838
H         0.6535092001       -3.8745931162        0.3232622769
H        -1.4430461724       -5.1928267859        0.5420876700
H        -3.6565463473       -4.0617798363        0.4560149594
