 44

C         6.2172840531       -1.5310601511        0.0000000000
C         6.7340204746       -0.2137783580        0.0000000000
C         5.8865725941        0.8591012343        0.0000000000
C         4.8664890948       -1.7426564062        0.0000000000
C         3.9583087420       -0.6480904397        0.0000000000
C         4.4761223362        0.6656036917        0.0000000000
C         3.5974528294        1.7749540624        0.0000000000
C         2.2311372141        1.5877325853        0.0000000000
C         1.3182983165        2.7065624458        0.0000000000
C        -0.0180206594        2.5180994394        0.0000000000
C        -0.5960786491        1.1953571491        0.0000000000
C        -1.6463581026       -1.4121609943        0.0000000000
C         2.5444786342       -0.8441732465        0.0000000000
C         1.6912935732        0.2651370285        0.0000000000
C         0.2671191519        0.0836087398        0.0000000000
C        -0.2679993999       -1.2304269742        0.0000000000
C         0.6339418888       -2.3509408171        0.0000000000
C         1.9744848832       -2.1635278703        0.0000000000
C        -2.5183653826       -0.3152031033        0.0000000000
C        -1.9965742688        0.9975231389        0.0000000000
C        -2.9062437411        2.1119539707        0.0000000000
C        -4.2462231275        1.9295770449        0.0000000000
C        -3.9555899015       -0.5106071532        0.0000000000
C        -4.8079420302        0.6067536328        0.0000000000
C        -6.2059627679        0.4210441496        0.0000000000
C        -6.7381494046       -0.8492725517        0.0000000000
C        -5.8904791570       -1.9679332950        0.0000000000
C        -4.5234653688       -1.8017991992        0.0000000000
H         6.9129427826       -2.3765062505        0.0000000000
H         7.8190684680       -0.0674256185        0.0000000000
H         6.2781544790        1.8827516821        0.0000000000
H         4.4485936506       -2.7610112268        0.0000000000
H         4.0174857176        2.7884515133        0.0000000000
H         1.7454955529        3.7160638265        0.0000000000
H        -0.7122722773        3.3723833992        0.0000000000
H        -2.0713942005       -2.4289625230        0.0000000000
H         0.2054669590       -3.3597102133        0.0000000000
H         2.6716987806       -3.0156681578        0.0000000000
H        -2.4712576604        3.1231962198        0.0000000000
H        -4.9323731738        2.7843277258        0.0000000000
H        -6.8623348766        1.2987097619        0.0000000000
H        -7.8233769027       -0.9941402120        0.0000000000
H        -6.3234110456       -2.9735780066        0.0000000000
H        -3.8496962384       -2.6722426645        0.0000000000
