 44

C         5.0764659711        1.1976186252       -0.3558753019
C         5.7149825360       -0.0269983015       -0.0685501130
C         4.9558901514       -1.1387629345        0.1713200446
C         3.7106081927        1.2941904183       -0.3292631065
C         2.8837335531        0.1820317008       -0.0080932605
C         3.5364601428       -1.0598601987        0.1610965661
C         2.7793608984       -2.2513554713        0.2570314261
C         1.4130462987       -2.2132254187        0.1304563193
C         0.6750752334       -3.4578082748        0.0803523844
C        -0.6595832729       -3.4610493998       -0.0612494361
C        -1.4027721459       -2.2199511031       -0.1202138753
C        -2.7684067015       -2.2647545002       -0.2518120151
C        -0.7187135495       -0.9626941798       -0.0421216080
C        -1.4467382043        0.2324900435       -0.0752945165
C         1.4457253759        0.2390368427        0.0770011180
C         0.7230734515       -0.9594351726        0.0486538865
C         0.6907718220        1.4779478408        0.1331916486
C        -0.6972803284        1.4747630687       -0.1327289909
C        -1.3048100459        2.7092931962       -0.4555425643
C        -0.6531802067        3.9073460058       -0.2727741177
C         0.6366517078        3.9103041710        0.2718242504
C         1.2933898530        2.7151236452        0.4550362952
C        -2.8847214930        0.1688725820        0.0060738471
C        -3.5311491625       -1.0763640925       -0.1628104193
C        -4.9501783598       -1.1617762452       -0.1788367332
C        -5.7153099371       -0.0531579738        0.0561531459
C        -5.0834725047        1.1746258921        0.3448009990
C        -3.7180077011        1.2774277831        0.3232801735
H         5.6866914396        2.0713110879       -0.6080676986
H         6.8083172034       -0.0784870226       -0.0613303919
H         5.4287786040       -2.1093269497        0.3610332573
H         3.2482487756        2.2574203110       -0.5836190825
H         3.3021188336       -3.2074588159        0.3877474315
H         1.2431380161       -4.3930333268        0.1481940830
H        -1.2238185028       -4.3990788414       -0.1219586039
H        -3.2863731536       -3.2237059880       -0.3807105528
H        -2.3246803153        2.7196420958       -0.8633295554
H        -1.1430980988        4.8522822443       -0.5283672733
H         1.1224243710        4.8575110278        0.5269058264
H         2.3132528591        2.7296314704        0.8627721964
H        -5.4177803236       -2.1347445561       -0.3693325828
H        -6.8083632476       -0.1094157841        0.0440622390
H        -5.6985959288        2.0457069301        0.5941129404
H        -3.2611144944        2.2429550726        0.5787182650
