 44

C        -6.4905771319        0.5085814164        0.0000000000
C        -6.4891371235       -0.9151060124        0.0000000000
C        -5.3161668274       -1.6058221224        0.0000000000
C        -5.3189411666        1.2017314294        0.0000000000
C        -4.0667161514        0.5087744290        0.0000000000
C        -4.0652010193       -0.9101812905        0.0000000000
C        -2.8468125451       -1.5988808492        0.0000000000
C        -2.8505874854        1.2017552004        0.0000000000
C        -1.6358977042        0.5185745239        0.0000000000
C        -1.6378568983       -0.9032189640        0.0000000000
C        -0.3920752063       -1.6078732554        0.0000000000
C         0.8044756960       -0.9489158769        0.0000000000
C         3.3101256111        0.4788883985        0.0000000000
C         4.5009569253        1.1862947469        0.0000000000
C         4.5073772134        2.5888294212        0.0000000000
C         3.3240373468        3.2889404239        0.0000000000
C         2.0779561846        1.1881240567        0.0000000000
C         2.0921265458        2.5978021982        0.0000000000
C         0.8547237416        3.3109669962        0.0000000000
C        -0.3277916816        2.6402863926        0.0000000000
C        -0.3679049648        1.2128729226        0.0000000000
C         0.8259909278        0.4927241366        0.0000000000
C         3.2939254142       -0.9810854009        0.0000000000
C         2.0725443513       -1.6763564985        0.0000000000
C         2.0858599223       -3.0789125148        0.0000000000
C         3.2798276357       -3.7801260529        0.0000000000
C         4.4908401360       -3.0897376395        0.0000000000
C         4.4948936639       -1.7051570896        0.0000000000
H        -7.4515370157        1.0333631633        0.0000000000
H        -7.4490460368       -1.4418065500        0.0000000000
H        -5.3050390367       -2.7016096791        0.0000000000
H        -5.3102135529        2.2975183356        0.0000000000
H        -2.8453907342       -2.6959606618        0.0000000000
H        -2.8464105299        2.3035923018        0.0000000000
H        -0.4119590918       -2.7099669910        0.0000000000
H         5.4547306057        0.6364878898        0.0000000000
H         5.4650483795        3.1197678552        0.0000000000
H         3.3227675906        4.3847850141        0.0000000000
H         0.8801461604        4.4066534895        0.0000000000
H        -1.2866666349        3.1813550701        0.0000000000
H         1.1265301506       -3.6190005128        0.0000000000
H         3.2731932051       -4.8748770810        0.0000000000
H         5.4363739546       -3.6415204182        0.0000000000
H         5.4470931382       -1.1525266772        0.0000000000
