 44

C         5.0997830117        0.4308798414        0.0000000000
C         4.8513501442        1.7978245193        0.0000000000
C         3.5485766943        2.2791375198        0.0000000000
C         4.0358856422       -0.4756333398        0.0000000000
C         3.2390328437       -2.7770434553        0.0000000000
C         4.2667105450       -1.9000378087        0.0000000000
C         1.8692583003       -2.3220998171        0.0000000000
C         0.8083196853       -3.2210946979        0.0000000000
C         2.7075629800        0.0065328119        0.0000000000
C         2.4617576525        1.3989462635        0.0000000000
C         1.6162869359       -0.9252279844        0.0000000000
C        -0.5186232854       -2.7618829252        0.0000000000
C        -2.9079514484       -3.2203708547        0.0000000000
C        -1.6276618745       -3.6732805131        0.0000000000
C         0.2944031628       -0.4540188339        0.0000000000
C        -0.7774483485       -1.3744163202        0.0000000000
C        -2.9343227374        3.2554917945        0.0000000000
C        -3.9639780653        2.3666158482        0.0000000000
C        -1.5751087469        2.8072965480        0.0000000000
C        -1.3072514338        1.4282281441        0.0000000000
C         0.0367545508        0.9630503719        0.0000000000
C         1.0926715881        1.8804330022        0.0000000000
C         0.8012918295        3.2655437308        0.0000000000
C        -0.4933156017        3.7196380138        0.0000000000
C        -2.1306437170       -0.9035910304        0.0000000000
C        -2.3930525088        0.4954173534        0.0000000000
C        -3.7172353498        0.9571901022        0.0000000000
C        -4.7801899496        0.0172586299        0.0000000000
C        -4.5259477655       -1.3290531431        0.0000000000
C        -3.1935489974       -1.8155827057        0.0000000000
H         6.1306335837        0.0590545854        0.0000000000
H         5.6893581021        2.5028053594        0.0000000000
H         3.3510973209        3.3622422345        0.0000000000
H         3.4197678945       -3.8581864556        0.0000000000
H         5.3057809837       -2.2492883649        0.0000000000
H         1.0055299762       -4.3002245694        0.0000000000
H        -3.7513022997       -3.9204747986        0.0000000000
H        -1.4130432249       -4.7481880268        0.0000000000
H        -3.1251566547        4.3348147079        0.0000000000
H        -5.0039540967        2.7126854031        0.0000000000
H         1.6472134655        3.9706128052        0.0000000000
H        -0.7043839222        4.7950721947        0.0000000000
H        -5.8116812924        0.3879200322        0.0000000000
H        -5.3511155956       -2.0504701739        0.0000000000
