 44

C         5.4593197122       -2.4390968041        0.0000000000
C         6.0322319217       -1.1435201844        0.0000000000
C         5.2352749524       -0.0327484089        0.0000000000
C         4.1013639534       -2.5969985950        0.0000000000
C         3.2481543573       -1.4579325742        0.0000000000
C         3.8185657838       -0.1681511980        0.0000000000
C         2.9680070899        0.9607079851        0.0000000000
C         1.8407238936       -1.5888255344        0.0000000000
C         1.0161484786       -0.4812919652        0.0000000000
C         1.5942398524        0.8239052856        0.0000000000
C        -0.4383581126       -0.6375305027        0.0000000000
C        -1.0161771567       -1.8819556460        0.0000000000
C         0.7295026331        2.0020263642        0.0000000000
C         1.2626889579        3.2817401833        0.0000000000
C         0.4319537619        4.4103753848        0.0000000000
C        -0.9360990162        4.2651640216        0.0000000000
C        -1.2723813269        0.5295377997        0.0000000000
C        -0.6809728284        1.8368350195        0.0000000000
C        -1.5102158606        2.9759375421        0.0000000000
C        -2.9314861803        2.8117776925        0.0000000000
C        -3.4823865694        1.5714316549        0.0000000000
C        -2.6640338174        0.3976849604        0.0000000000
C        -2.4295481506       -2.0430370813        0.0000000000
C        -3.2620888693       -0.9083869405        0.0000000000
C        -4.6676485784       -1.0907587791        0.0000000000
C        -5.2097276466       -2.3502945283        0.0000000000
C        -4.3726393977       -3.4853204434        0.0000000000
C        -3.0094490398       -3.3372656830        0.0000000000
H         6.1211844195       -3.3113479979        0.0000000000
H         7.1228362920       -1.0462138661        0.0000000000
H         5.6702866614        0.9729488072        0.0000000000
H         3.6502679963       -3.5955818812        0.0000000000
H         3.4144725722        1.9683282500        0.0000000000
H         1.3976157043       -2.5979113963        0.0000000000
H        -0.3799669290       -2.7819583580        0.0000000000
H         2.3560669205        3.4103486216        0.0000000000
H         0.8829304177        5.4081870914        0.0000000000
H        -1.5911672466        5.1436748449        0.0000000000
H        -3.5618408375        3.7083694961        0.0000000000
H        -4.5747045771        1.4337331635        0.0000000000
H        -5.3097563943       -0.1968395343        0.0000000000
H        -6.2961606262       -2.4859830009        0.0000000000
H        -4.8233598658       -4.4831072404        0.0000000000
H        -2.3517713256       -4.2138841712        0.0000000000
