 44

C        -2.2921902572        1.3069634297        1.0444386807
C        -0.3660450219        1.7891338431       -1.0658302048
C         0.3525722946        0.7469211868       -0.4782345467
C        -0.2381721322       -0.5635568071       -0.2224870813
C        -1.6498237432       -0.8025028855       -0.1547940720
C        -2.6368982791        0.1672897760        0.2812214500
C         1.7334228028        0.9450297175       -0.2319253717
C         2.3117780848        2.2203296446       -0.4054203114
C         1.5372809648        3.2668335907       -0.9243752616
C         0.2214634780        3.0340223534       -1.2849680609
C         2.5720485309       -0.1605823648        0.1321958861
C         3.9379690290        0.0514977423        0.4130296345
C         4.4709340055        1.3866812696        0.3383980881
C         3.6973767128        2.4192639963       -0.0677703230
C         2.0431897204       -1.4702576408        0.1394540298
C         2.8902222921       -2.5399664027        0.4274493527
C         4.2332720031       -2.3236171479        0.7280294957
C         4.7578597095       -1.0418787452        0.7258484658
C         0.6237807282       -1.6623031751       -0.1194231546
C        -2.1153760760       -2.0936646325       -0.4613728349
C        -1.2106577535       -3.1798950124       -0.5292415797
C         0.1161626955       -2.9756367278       -0.2680480603
C        -4.0039029911       -0.0855999473        0.0535498590
C        -4.4176674381       -1.3381467226       -0.5099655043
C        -3.5116227747       -2.3262754617       -0.6974602101
C        -3.2531674785        2.1978798190        1.4631758557
C        -4.6043610341        1.9896364933        1.1405070877
C        -4.9759287438        0.8577276326        0.4545050283
H         1.9844252315        4.2575976600       -1.0624050779
H        -1.2408866662        1.4714955350        1.3142943589
H        -0.3707860518        3.8348323892       -1.7404275898
H         4.1062466881        3.4327562676       -0.1517306517
H         5.5240330353        1.5371475570        0.6020495252
H         5.8160509788       -0.8762509063        0.9572327814
H         4.8772732837       -3.1773222934        0.9639719004
H         2.4832040792       -3.5625727982        0.4155733386
H         0.8189227666       -3.8205622271       -0.2052954812
H        -1.5915862352       -4.1837861723       -0.7483744314
H        -3.8197191436       -3.3183388143       -1.0472819589
H        -5.4801381540       -1.4891192933       -0.7317524972
H        -6.0307575140        0.6652288961        0.2275697125
H        -5.3553292855        2.7213777589        1.4551787660
H        -2.9694088724        3.0743546172        2.0550421208
H        -1.4129505760        1.6320337927       -1.3568892202
