 46

C        -2.8944491999       -1.2242239553        0.0641297828
C        -3.8481077636       -2.2301946751        0.1073104539
C        -3.4819214118       -3.5758174506       -0.0240660758
C        -2.1618974732       -3.9204963330       -0.2075295114
C        -0.5020204704       -0.5562922161       -0.1087257787
C        -1.5242719493       -1.5642728847       -0.0983376740
C        -1.1695305787       -2.9189270360       -0.2481213784
C         0.2034266484       -3.2501179393       -0.4592367803
C         1.1610990678       -2.2877798433       -0.4311110296
C         0.8509603619       -0.9107679088       -0.1878840048
C        -3.2764826357        0.1790779512        0.1653804126
C        -3.9969033977        2.8904379165        0.2704952581
C        -4.9585088233        1.9112172124        0.3828949423
C        -4.6010165838        0.5581377699        0.3244688302
C        -2.6411628501        2.5357168775        0.1099999356
C        -2.2708741627        1.1766942134        0.0742540225
C        -0.8878791253        0.8209651052       -0.0574339341
C         0.0835053083        1.8152511911       -0.1704842735
C        -0.3253349208        3.1875740235       -0.1722519590
C        -1.6294473042        3.5370460641       -0.0276003615
C         1.4714707848        1.4486700790       -0.2369236774
C         1.8675999517        0.1101719364       -0.1052636074
C         3.7770336974        2.1823357968       -0.4544906618
C         2.4532902807        2.4697900276       -0.4467656004
C         4.2201441093        0.8639472871       -0.1268088011
C         3.2774119686       -0.1593098295        0.1055923923
C         3.7715150952       -1.3838333913        0.6187454914
C         5.1168733903       -1.6033524753        0.7910794282
C         6.0500436977       -0.6046871368        0.4635546782
C         5.6050389482        0.6162099846        0.0218476070
H        -4.9064118985       -1.9584437679        0.2434143735
H        -4.2557187224       -4.3495143923        0.0155818164
H        -1.8690892921       -4.9701548019       -0.3226891939
H         0.4658179677       -4.2970736513       -0.6507834908
H         2.2064010882       -2.5700807567       -0.6173575250
H        -4.2732600389        3.9503155723        0.3042649253
H        -6.0113025918        2.1828624050        0.5127241530
H        -5.3756468529       -0.2207243056        0.3987166973
H         0.4485107901        3.9614953739       -0.2855666881
H        -1.9315201543        4.5905860855       -0.0154798438
H         4.5244608612        2.9549433782       -0.6680150240
H         2.1054467972        3.4986715253       -0.6235025145
H         3.0655732020       -2.1771085525        0.8995894314
H         5.4712586076       -2.5591767357        1.1911578494
H         7.1203236715       -0.8024488816        0.5801556373
H         6.3156393653        1.4183513565       -0.2087241462
