 42

C         6.6219232416       -1.1837431279        0.0000000000
C         6.9439063197        0.2025833179        0.0000000000
C         5.9581328280        1.1418207903        0.0000000000
C         5.3231370062       -1.5925203083        0.0000000000
C         4.2615893887       -0.6331425421        0.0000000000
C         4.5825819502        0.7482424691        0.0000000000
C         3.5511071333        1.6959550703        0.0000000000
C         2.9190935921       -1.0318445402        0.0000000000
C         1.8911320842       -0.0915814201        0.0000000000
C         2.2180361940        1.2930200261        0.0000000000
C         1.1582722926        2.2633370578        0.0000000000
C        -0.1379988953        1.8732626718        0.0000000000
C         0.4973155952       -0.4837432820        0.0000000000
C        -0.4973011004        0.4836596584        0.0000000000
C        -1.1583286543       -2.2634027147        0.0000000000
C         0.1379931554       -1.8733528577        0.0000000000
C        -2.2180657048       -1.2930627028        0.0000000000
C        -1.8911196623        0.0915276087        0.0000000000
C        -2.9190499704        1.0318259829        0.0000000000
C        -3.5511666626       -1.6959543165        0.0000000000
C        -4.5825973156       -0.7482094883        0.0000000000
C        -4.2615594430        0.6331661375        0.0000000000
C        -5.3230918381        1.5925749829        0.0000000000
C        -6.6218794516        1.1838240743        0.0000000000
C        -6.9438996821       -0.2024970230        0.0000000000
C        -5.9581631586       -1.1417543545        0.0000000000
H         7.4382141026       -1.9134766123        0.0000000000
H         7.9982458709        0.4978734738        0.0000000000
H         6.1963176076        2.2114663617        0.0000000000
H         5.0658802708       -2.6577133981        0.0000000000
H         3.7988724789        2.7647050381        0.0000000000
H         2.6666812596       -2.1043315364        0.0000000000
H         1.4273614850        3.3259000564        0.0000000000
H        -0.9544741015        2.6117353331        0.0000000000
H        -1.4274344451       -3.3259643103        0.0000000000
H         0.9544377950       -2.6118575737        0.0000000000
H        -2.6665684181        2.1042980445        0.0000000000
H        -3.7989498456       -2.7646990458        0.0000000000
H        -5.0658036585        2.6577611089        0.0000000000
H        -7.4381645985        1.9135654872        0.0000000000
H        -7.9982457249       -0.4977622469        0.0000000000
H        -6.1963610542       -2.2113950426        0.0000000000
