 43

C         2.5493242183        3.5578305160       -0.7489402084
C         1.3408171355        2.9131302652       -0.5997411398
C         3.7041917829        1.5475235390       -0.1394683371
C         3.7453613263        2.8785625477       -0.4878106503
C         2.4755740802        0.8656171799       -0.0205830266
C         1.2652104434        1.5662678492       -0.1835186160
C         2.4592279195       -0.5657718148        0.1944380742
C         2.4316174795       -3.3496758375        0.3886937574
C         3.6351526508       -2.6536910407        0.5325517909
C         3.6502004335       -1.2798699129        0.4260676224
C        -0.0000290415        0.8706354142        0.0000159061
C        -2.4756112650        0.8655586227        0.0204922521
C        -1.2652864462        1.5661773715        0.1835392186
C        -1.3408702934        2.9131155319        0.5998753982
C        -2.5492867355        3.5578153134        0.7490281332
C        -3.7453949232        2.8785422206        0.4877332989
C        -3.7042714422        1.5476125174        0.1393210019
C        -2.4592495469       -0.5657904965       -0.1944806885
C        -3.6502275336       -1.2800486334       -0.4261743288
C        -3.6350825038       -2.6537840312       -0.5326662118
C        -2.4314602735       -3.3497522652       -0.3886808328
C        -1.2377732705       -1.2557154060       -0.1063928758
C        -1.2450017080       -2.6662854871       -0.1713018135
C         0.0000352020       -3.4632297269        0.0001384582
C         1.2450543217       -2.6662394011        0.1713973045
C         1.2377517628       -1.2557465990        0.1064339820
C        -0.0000207106       -0.5151910952        0.0000294641
H         2.5786153464        4.6029174336       -1.0743284414
H         0.4159104844        3.4660177846       -0.8133368757
H         4.6365825203        0.9904036309        0.0393990999
H         4.7027369928        3.4013626518       -0.5785409080
H         2.4279753108       -4.4439917801        0.4484897450
H         4.5626165935       -3.2049780510        0.7182303693
H         4.5958633618       -0.7234107607        0.5097597570
H        -0.4157517689        3.4656393508        0.8134982568
H        -2.5787633524        4.6028636302        1.0745141235
H        -4.7027004183        3.4014718831        0.5784904605
H        -4.6365112402        0.9902933893       -0.0396358229
H        -4.5957099715       -0.7233106588       -0.5099192752
H        -4.5624364059       -3.2052225317       -0.7184540948
H        -2.4279575944       -4.4440648807       -0.4485325770
H         0.1260740280       -4.1333061500       -0.8766305781
H        -0.1259850073       -4.1331428014        0.8770331692
