 44

C         6.3119008767       -1.0793802595        0.0000000000
C         5.9966014462        0.2615344306        0.0000000000
C         3.9716146833       -1.6565517952        0.0000000000
C         5.2927524489       -2.0447136435        0.0000000000
C         3.6264384754       -0.2893632023        0.0000000000
C         4.6485145876        0.6757906705        0.0000000000
C         4.3117400804        2.0742509999        0.0000000000
C         3.0203421086        2.4778114691        0.0000000000
C         2.2438365233        0.1405003682        0.0000000000
C         1.9483238722        1.5185828876        0.0000000000
C         0.6100900821        1.9373313608        0.0000000000
C         1.1885117384       -0.7821806537        0.0000000000
C        -0.1379533052       -0.3682312741        0.0000000000
C        -0.4332708882        1.0186190779        0.0000000000
C        -1.2205214846       -1.3456791006        0.0000000000
C        -3.3227101575       -3.2079527120        0.0000000000
C        -2.0090482674       -3.6375238881        0.0000000000
C        -0.9632481575       -2.7134134734        0.0000000000
C        -1.8210838195        1.4682104522        0.0000000000
C        -2.1455603049        2.8215552340        0.0000000000
C        -3.4777184215        3.2376055910        0.0000000000
C        -4.5011789565        2.3088317023        0.0000000000
C        -2.5621474588       -0.8962116176        0.0000000000
C        -2.8621617601        0.5098165907        0.0000000000
C        -4.2057397496        0.9354444648        0.0000000000
C        -5.2583046970       -0.0453328948        0.0000000000
C        -4.9758178550       -1.3685590385        0.0000000000
C        -3.6144381566       -1.8337642359        0.0000000000
H         7.3586716871       -1.4004108522        0.0000000000
H         6.7891627244        1.0184883982        0.0000000000
H         3.1598083074       -2.4002206387        0.0000000000
H         5.5554148896       -3.1075762229        0.0000000000
H         5.1308728774        2.8026068015        0.0000000000
H         2.7610671246        3.5427525764        0.0000000000
H         0.3753115030        3.0142989746        0.0000000000
H         1.4257730350       -1.8637145084        0.0000000000
H        -4.1435335641       -3.9340125778        0.0000000000
H        -1.7817196618       -4.7087053374        0.0000000000
H         0.0814265091       -3.0610207983        0.0000000000
H        -1.3346203778        3.5660888500        0.0000000000
H        -3.7079023184        4.3081865371        0.0000000000
H        -5.5470396405        2.6360589738        0.0000000000
H        -6.2949544253        0.3107634738        0.0000000000
H        -5.7766006204       -2.1170102128        0.0000000000
