 44

C         3.5663887275        2.8708810703        0.0000000000
C         2.8634802108        1.6453680475        0.0000000000
C         3.5756712289        0.4343752729        0.0000000000
C         4.9869681992        0.4701610532        0.0000000000
C         5.6573303552        1.6716092119        0.0000000000
C         4.9420558631        2.8812052170        0.0000000000
C         2.8456485665       -0.8141661129        0.0000000000
C         1.4369576543       -0.8038488406        0.0000000000
C         0.7320706352        0.4545520185        0.0000000000
C         1.4332404781        1.6267425885        0.0000000000
C         0.7307533601       -2.0333433803        0.0000000000
C        -0.7323712519       -2.0327497472        0.0000000000
C        -1.4375889641       -0.8026921147        0.0000000000
C        -0.7316919136        0.4551430329        0.0000000000
C        -2.8462854551       -0.8118818018        0.0000000000
C        -3.5752981350        0.4372201924        0.0000000000
C        -2.8621610502        1.6476493070        0.0000000000
C        -1.4319288623        1.6278966255        0.0000000000
C        -4.9865491208        0.4740910494        0.0000000000
C        -5.6559939842        1.6760568384        0.0000000000
C        -4.9397879051        2.8851045902        0.0000000000
C        -3.5641148177        2.8737129348        0.0000000000
C         3.5315017973       -2.0457893190        0.0000000000
C         2.8363728034       -3.2339726183        0.0000000000
C         1.4378225976       -3.2277062173        0.0000000000
C        -1.4404119324       -3.2265531155        0.0000000000
C        -2.8389874447       -3.2316879756        0.0000000000
C        -3.5331537249       -2.0429375715        0.0000000000
H        -5.4854316497        3.8343209127        0.0000000000
H        -6.7506392135        1.6980881178        0.0000000000
H        -5.5360783793       -0.4796531458        0.0000000000
H        -2.9994573356        3.8129405487        0.0000000000
H        -0.8939165678        2.5899840203        0.0000000000
H         0.8885691043       -4.1816947044        0.0000000000
H         3.3723346091       -4.1887307762        0.0000000000
H         4.6322712872       -2.0352356954        0.0000000000
H         0.8959948744        2.5892590817        0.0000000000
H        -4.6339169956       -2.0312931299        0.0000000000
H        -3.3757375696       -4.1860060489        0.0000000000
H        -0.8919100624       -4.1809756360        0.0000000000
H         5.5357610002       -0.4840049442        0.0000000000
H         6.7519908172        1.6928221858        0.0000000000
H         5.4884434684        3.8299932764        0.0000000000
H         3.0024618466        3.8105460365        0.0000000000
