 44

C        -5.2787835529        1.7368004639       -0.1589410463
C        -6.1310373429        0.6571380090        0.0790484108
C        -5.6248393751       -0.6177268539        0.2636223174
C        -4.2393447879       -0.8406108391        0.2177034593
C        -3.6766151943       -2.1494068907        0.3919792628
C        -2.3357556560       -2.3439106420        0.3365368404
C        -1.4265966052       -1.2529390032        0.1184661272
C         0.2829160985        0.9333588913       -0.2926162543
C        -3.9009327747        1.5452654308       -0.2084274338
C        -3.3709459408        0.2464767727       -0.0122031626
C        -1.9555036365        0.0325719235       -0.0519056740
C        -1.0828612283        1.1318064271       -0.2870837232
C        -1.6566046273        2.4416285487       -0.5063887502
C        -2.9908926008        2.6386275460       -0.4633356992
C         0.8561881047       -0.3398260944       -0.0647340918
C        -0.0140612525       -1.4459942379        0.0653522838
C         0.5237224358       -2.7689722134        0.0852995066
C         1.8521213489       -2.9748886448       -0.0936683637
C         2.2892716148       -0.5554018099       -0.0408934995
C         2.7512197722       -1.8690120272       -0.1825867550
C         4.1342458043       -2.1463795762       -0.4183952861
C         5.0418173474       -1.1403466368       -0.4571842353
C         3.2827064763        0.4872778614        0.1202650709
C         4.6381706357        0.1954305666       -0.1464361482
C         5.6232845870        1.2070110182       -0.0511598363
C         5.2884134060        2.4686522777        0.3721288841
C         3.9591737003        2.7461078689        0.7356560887
C         2.9878891049        1.7824357222        0.6133030679
H        -5.6962512423        2.7388967798       -0.3086642812
H        -7.2127426626        0.8242570501        0.1169804428
H        -6.3008297823       -1.4608213114        0.4452458056
H        -4.3600946067       -2.9880816011        0.5672199859
H        -1.9066214768       -3.3498726012        0.4602866864
H         0.9362717977        1.7944684477       -0.4961258296
H        -0.9701177596        3.2730661287       -0.7044624394
H        -3.4210571014        3.6341529709       -0.6224900564
H        -0.1711428955       -3.6132109657        0.2103637876
H         2.2603780240       -3.9907391390       -0.1510840622
H         4.4385654153       -3.1862667844       -0.5855366083
H         6.0960198377       -1.3345999075       -0.6854161190
H         6.6611815792        0.9629864879       -0.3059208903
H         6.0472566775        3.2540008715        0.4470996297
H         3.7045474910        3.7377808847        1.1242332775
H         1.9620687083        2.0237442522        0.9240444151
