 44

C         5.2946825334       -2.3631964779       -0.1138865350
C         5.7373421633       -1.0345732956       -0.2942894732
C         4.8375406099       -0.0016630704       -0.3053082149
C         3.9610395843       -2.6300911623        0.0494920896
C         3.0110091721       -1.5745092189        0.0387697801
C         3.4503370666       -0.2484538092       -0.1378297179
C         1.6265087896       -1.8452337804        0.1989943411
C         0.6913738581       -0.8374603512        0.1738627672
C        -0.7399400026       -1.1139104479        0.2581763055
C        -1.6841752059       -0.0999333344        0.1150682079
C        -2.4772510624       -2.7957096408        0.4563840695
C        -1.1590035069       -2.4590805740        0.4630448877
C        -3.4532443652       -1.8149549301        0.1301396934
C        -3.0606337085       -0.4764511416       -0.0927492033
C        -4.0547423998        0.4113140887       -0.5870621646
C        -5.3545397947        0.0137116150       -0.7586196421
C        -5.7488774547       -1.3024409662       -0.4422222703
C        -4.8108932839       -2.2028511179       -0.0146718067
C        -1.2292549950        1.2899511932        0.1911328951
C        -0.3054711373        3.9637105630        0.2291230764
C        -1.6287838419        3.6764408963        0.4757011768
C        -2.0833449802        2.3530111932        0.4581426725
C         1.1254313491        0.5167088687        0.0129922299
C         2.4853645866        0.8109742148       -0.1339353902
C         2.8991787160        2.1758660442       -0.2534960030
C         2.0002438083        3.1873825252       -0.1619341166
C         0.6089674391        2.9109252673        0.0343489816
C         0.1600658802        1.5737945917        0.0603361780
H         6.0295031041       -3.1748239231       -0.1067500475
H         6.8069166026       -0.8403756439       -0.4247353831
H         5.1675336310        1.0392548514       -0.4434624510
H         3.6091564296       -3.6585381128        0.1892780646
H         1.3092707325       -2.8910037583        0.3382824750
H        -2.7993656202       -3.8228921422        0.6618462903
H        -0.3914177207       -3.2278906679        0.6393525094
H        -3.7732464750        1.4394183675       -0.8527489959
H        -6.0990927112        0.7152056136       -1.1495057272
H        -6.7974042885       -1.5949740143       -0.5570517593
H        -5.0910152742       -3.2387298492        0.2089276057
H         0.0491703485        5.0001547228        0.2049551897
H        -2.3404166567        4.4837405386        0.6788984428
H        -3.1487181129        2.1716926910        0.6561797652
H         3.9713887951        2.3746521856       -0.4045928815
H         2.3197967870        4.2335352958       -0.2306998246
