 44

C         2.8081438787        2.7143691022        0.0291726159
C         3.5599457648        1.4689355600       -0.0192000251
C         2.8305195843        0.2389302763       -0.0562968374
C         1.4178169195        0.2365508652       -0.1251452921
C         0.6685628724        1.5118781413       -0.3819482275
C         1.4768246211        2.7333885637       -0.0970417531
C         0.7256427298       -0.9619614867       -0.0200162787
C        -0.7256205053       -0.9619621831        0.0201673762
C        -1.4178146308        0.2364958502        0.1252665182
C        -0.6686247337        1.5118498948        0.3820705940
C        -1.4768677923        2.7333900987        0.0972099911
C        -2.8081847920        2.7143050726       -0.0290691275
C        -3.5599533501        1.4688487946        0.0192024527
C        -2.8305490139        0.2388934956        0.0563489764
C        -3.5315421419       -0.9867282043       -0.0049952690
C        -4.9556357645       -0.9669979471       -0.0399519855
C        -5.6317223642        0.2209707994       -0.0376234014
C        -4.9330821701        1.4515900643       -0.0209826367
C        -2.8128778358       -2.2016786169       -0.0230775779
C        -1.4299905785       -2.1970619397       -0.0210668182
C         1.4300066649       -2.1970262510        0.0211837675
C         0.6733234448       -3.4324013552        0.0208522429
C        -0.6732635810       -3.4324249545       -0.0206896631
C         3.5315269326       -0.9866839760        0.0049390421
C         2.8129371306       -2.2016324904        0.0230714650
C         4.9330265403        1.4516533014        0.0207810322
C         5.6317683995        0.2210186768        0.0372505769
C         4.9556824055       -0.9668986865        0.0396551700
H        -5.4997242985        2.3889560204       -0.0507594961
H        -6.7264847794        0.2372754952       -0.0586968951
H        -5.4951987725       -1.9203435573       -0.0683744550
H        -3.3638085441       -3.1499012365       -0.0415759301
H        -1.2374476232       -4.3721191722       -0.0420730389
H         1.2374513017       -4.3721320368        0.0423101505
H         3.3638197915       -3.1498891617        0.0414698817
H         5.4951312036       -1.9203302135        0.0679214013
H         6.7265144324        0.2374381869        0.0580575619
H         5.4997630552        2.3889743022        0.0504516849
H         3.3770067981        3.6372776512        0.1916020571
H         0.9027803900        3.6707810692       -0.0283310849
H         0.4488375186        1.5345013155       -1.4821423533
H        -0.4487532702        1.5344618418        1.4822445647
H        -0.9028215905        3.6707793711        0.0285709902
H        -3.3770493555        3.6372301231       -0.1914719386
