 44

C         4.8842860877        1.6598497940       -0.4060025028
C         5.6964172619        0.5580764692       -0.0223740441
C         5.1134004830       -0.6374573781        0.2557258634
C         3.5274564186        1.5533845636       -0.4120526622
C         2.8564162384        0.3432692046       -0.0360708379
C         3.6890411087       -0.7881089854        0.1946174485
C         3.1280339363       -2.0588737952        0.3049053064
C         1.7558656818       -2.2303116871        0.1272967072
C         1.2338128166       -3.5515985289       -0.0350603803
C        -0.0715535846       -3.7212032545       -0.3706279294
C        -0.9374672892       -2.6017884269       -0.4390119351
C         1.4467729250        0.2004703089        0.0528027473
C         0.8961400035       -1.0987554963        0.0477552818
C        -0.5187540395       -1.3293099530       -0.1289639629
C         0.5187712691        1.3312861583        0.1185948923
C        -1.2354925809        3.5530634648        0.0236125341
C         0.0716727896        3.7244255451        0.3511860419
C         0.9379211148        2.6054935495        0.4212379189
C        -1.7576984942        2.2309538035       -0.1310551423
C        -0.8966641927        1.1001936156       -0.0539250359
C        -1.4469022691       -0.1992021755       -0.0572745865
C        -3.1311351782        2.0585158364       -0.2980899004
C        -3.6908515589        0.7875846722       -0.1834097503
C        -2.8557808443       -0.3435922783        0.0392677717
C        -3.5230802033       -1.5564111356        0.4127439175
C        -4.8798925045       -1.6642061811        0.4150324021
C        -5.6955697480       -0.5610735179        0.0430633661
C        -5.1154684999        0.6360221972       -0.2345824075
H         5.3704526009        2.5936179384       -0.7075543328
H         6.7827718340        0.6843097589        0.0208787304
H         5.7179281050       -1.5134422613        0.5178035169
H         2.9273137185        2.4123617451       -0.7420481326
H         3.7725472026       -2.9309858481        0.4724688345
H         1.9124255051       -4.4053455481        0.0714154127
H        -0.4791338282       -4.7168917701       -0.5741899499
H        -1.9777339600       -2.7976087812       -0.7330823293
H        -1.9148959215        4.4062396333       -0.0824304010
H         0.4798490571        4.7209787950        0.5492910153
H         1.9783663515        2.8022410969        0.7139245941
H        -3.7771386397        2.9301906831       -0.4622380839
H        -2.9210615390       -2.4181677367        0.7319604969
H        -5.3632949420       -2.6005059760        0.7131583158
H        -6.7821590258       -0.6877255073        0.0075102873
H        -5.7226305155        1.5124419943       -0.4890228221
