 44

C         4.9747186031       -1.2059458998       -0.0001743952
C         3.6727597922       -0.7836193752       -0.0000879750
C         3.6644829601        0.6866094223        0.0001667696
C         5.0701133552        1.0986332114        0.0002604533
C         5.8390434433       -0.0256067401        0.0000463313
C         2.5082125602        1.3999434100        0.0002460509
C         1.2397693463        0.6824410998        0.0000314553
C         1.2135814642       -0.7297257450       -0.0000581698
C         2.4250670543       -1.5027846176       -0.0001620188
C         0.0333956655        1.4098913159       -0.0001137238
C        -1.2135851453        0.7297346629       -0.0003896157
C        -1.2397802943       -0.6824256873       -0.0000334324
C        -0.0334105662       -1.4098809424       -0.0000552784
C        -2.5082106451       -1.3999277673        0.0004930345
C        -3.6644683470       -0.6866229665        0.0009727760
C        -3.6727362185        0.7835947730       -0.0005016223
C        -2.4250696045        1.5027883943       -0.0007211171
C        -4.9746842699        1.2059165797       -0.0007808328
C        -5.8390029469        0.0256006214       -0.0005277694
C        -5.0700973664       -1.0986340059        0.0019273066
C         0.0494353876        2.8437950882        0.0000741227
C        -1.1320063442        3.5505343552       -0.0001145771
C        -2.3710905631        2.8788806762       -0.0005511319
C        -0.0494630042       -2.8437884198       -0.0001738266
C        -1.3255931454       -3.5299476897       -0.0002415800
C        -2.4854374393       -2.8484099518        0.0001063096
C         2.3710852515       -2.8788940694       -0.0003082828
C         1.1319864171       -3.5505439609       -0.0003354168
C         2.4854197827        2.8484375328        0.0005254814
C         1.3255649242        3.5299585862        0.0004657917
H         6.9255738810       -0.0789732046        0.0000302329
H         5.3426014156       -2.2300303285       -0.0003666411
H         5.4044380247        2.1340278811        0.0004478532
H         1.3135823444        4.6264318397        0.0007164002
H         3.4505708792        3.3693185751        0.0007944750
H        -3.2974379215        3.4655863121       -0.0008282805
H        -1.1208730945        4.6469377765        0.0001825542
H        -1.3136169302       -4.6264209008       -0.0007146861
H        -3.4505981431       -3.3692735058       -0.0001044755
H         3.2974178089       -3.4656225903       -0.0004459348
H         1.1208791932       -4.6469485095       -0.0005138679
H        -5.4044385800       -2.1340209886        0.0020476389
H        -6.9255315862        0.0789678615        0.0006252057
H        -5.3425685745        2.2299972722       -0.0016932627
