 44

C        -5.7986700997       -1.2082352630        0.0000000310
C        -4.4016580675       -0.8849886958        0.0000000314
C        -4.0129665585        0.4834611104        0.0000000452
C        -5.0309949154        1.4933813186        0.0000000555
C        -6.3458616523        1.1483930092        0.0000000301
C        -6.7356441893       -0.2232656725        0.0000000095
C        -2.6592927894        0.8177532306        0.0000000283
C        -1.6797285243       -0.1808942890       -0.0000000111
C        -2.0662599072       -1.5541428984       -0.0000000251
C        -3.4265092261       -1.8828056656        0.0000000033
C        -0.2864644530        0.1055882931       -0.0000000400
C         0.6614185336       -0.9255157134       -0.0000000705
C         0.2636756026       -2.2821168632       -0.0000000826
C        -1.0678188474       -2.5816559870       -0.0000000657
C         2.0090418910       -0.3404099192       -0.0000000647
C         1.8201722351        1.0558700432       -0.0000000852
C         2.8484982112        2.0025978725       -0.0000000657
C         4.1565394772        1.5039701450       -0.0000000461
C         4.3860780972        0.1191419150       -0.0000000121
C         3.3150612475       -0.8322479234       -0.0000000300
C         2.4334201845        3.3749022431       -0.0000000086
C         1.1040855715        3.6950004392        0.0000000351
C         0.0671526916        2.7083451362        0.0000000267
C         0.4201107732        1.3933881085       -0.0000000279
C         5.7315105119       -0.3789378981        0.0000000660
C         5.9836494370       -1.7152981592        0.0000001190
C         4.9134519864       -2.6553817260        0.0000000936
C         3.6219184010       -2.2292856008        0.0000000214
H         5.1511993559       -3.7241749916        0.0000001378
H         7.0122969083       -2.0905706331        0.0000001820
H         6.5541802533        0.3456443716        0.0000000888
H         2.7813085369       -2.9404690223        0.0000000126
H         5.0052611626        2.1981773351       -0.0000000122
H         3.2018006357        4.1554930128        0.0000000198
H         0.7999848953        4.7475739830        0.0000000883
H        -0.9899165676        3.0112388734        0.0000000725
H        -1.4012905342       -3.6258948179       -0.0000000755
H         1.0387019401       -3.0622988310       -0.0000001050
H        -2.3487302008        1.8755207193        0.0000000345
H        -3.7297801899       -2.9372598681       -0.0000000085
H        -4.7217271487        2.5446246588        0.0000000649
H        -7.1269799596        1.9156171676        0.0000000193
H        -7.8034827355       -0.4650869046       -0.0000000248
H        -6.0889513924       -2.2649827981       -0.0000000283
