 44

C        -3.3941680388        2.7884168200       -0.0871773923
C        -1.0165876976        2.7699986683       -0.4911248078
C        -2.2319789106        3.4470024097       -0.4505820667
C        -3.3576305972        1.4088258765        0.1439333859
C        -4.5692522369        0.6762059919        0.4056181877
C        -4.5689656697       -0.6751383596        0.4097121946
C        -3.3571546406       -1.4087816978        0.1516573198
C        -3.3935659444       -2.7897909531       -0.0714536703
C        -2.2321308524       -3.4495271250       -0.4347930074
C        -1.0172632611       -2.7718809712       -0.4825999653
C        -2.1290632245        0.7156618593        0.0630968726
C        -2.1288852092       -0.7158260806        0.0660392281
C        -0.9173728301       -1.4187033137       -0.1472312550
C        -0.9175266279        1.4179578312       -0.1506772979
C         0.3460313964        0.6934890617       -0.0334048980
C         0.3463701544       -0.6939679290       -0.0325195481
C         1.6098747841        1.4091816397        0.0836594989
C         2.8151305923        0.7235257611       -0.1561366367
C         4.0285972763        1.4376637395       -0.2421500525
C         4.0742782661        2.7865729094        0.0260929885
C         2.9051454509        3.4444457581        0.4282329465
C         1.7054627432        2.7674755885        0.4578232978
C         2.8153991920       -0.7214669790       -0.1595907834
C         1.6111069557       -1.4084243054        0.0827915912
C         1.7094009742       -2.7672722662        0.4537759715
C         2.9087790125       -3.4445001923        0.4136589514
C         4.0750906217       -2.7855991025        0.0054464801
C         4.0281504527       -1.4351960780       -0.2557684788
H        -4.3432845584        3.3310443953       -0.0157590462
H        -0.1219914796        3.3312696180       -0.7929711308
H        -2.2642521473        4.5118556240       -0.7047984323
H        -5.4896433830        1.2455298206        0.5782963015
H        -5.4889531511       -1.2438048109        0.5866207149
H        -4.3423584830       -3.3321096784        0.0063981620
H        -2.2642547379       -4.5160039441       -0.6820993308
H        -0.1236643335       -3.3346338870       -0.7845845390
H         4.9467588844        0.8890218575       -0.5016018788
H         5.0170033431        3.3383373974       -0.0435937836
H         2.9487111581        4.4995081157        0.7178749678
H         0.8062123833        3.3061788113        0.7858618633
H         0.8125091597       -3.3071187811        0.7862954300
H         2.9540181663       -4.5006504078        0.6990220281
H         5.0171259338       -3.3371345635       -0.0746419886
H         4.9452507809       -0.8854398320       -0.5166100162
