 44

C         7.1219204001       -1.1976446694        0.0000000000
C         7.3334994935        0.2167446118        0.0000000000
C         6.2815303445        1.0727759561        0.0000000000
C         5.8654783669       -1.7083951295        0.0000000000
C         4.7201872867       -0.8380623412        0.0000000000
C         4.9316209485        0.5756489099        0.0000000000
C         3.8459290376        1.4365691233        0.0000000000
C         3.4299221263       -1.3435662078        0.0000000000
C         2.3187263345       -0.4755119095        0.0000000000
C         2.5289216438        0.9317828288        0.0000000000
C         1.4116731836        1.7964207719        0.0000000000
C         0.9975579640       -0.9760628380        0.0000000000
C        -0.0914420260       -0.1238150331        0.0000000000
C         0.1221985184        1.2923772047        0.0000000000
C        -1.0081564487        2.1784334556        0.0000000000
C        -2.2829128054        1.6941943275        0.0000000000
C        -3.4299372150        2.5831866685        0.0000000000
C        -4.6895261825        2.1091035648        0.0000000000
C        -4.9583466982        0.6849624297        0.0000000000
C        -6.2527748774        0.1926978716        0.0000000000
C        -6.4843075067       -1.1913483818        0.0000000000
C        -5.4328821016       -2.0802753261        0.0000000000
C        -3.8613899645       -0.2192434833        0.0000000000
C        -4.1021871975       -1.6078997254        0.0000000000
C        -2.9905368503       -2.5042483130        0.0000000000
C        -1.7157038192       -2.0263244013        0.0000000000
C        -1.4510648836       -0.6238274514        0.0000000000
C        -2.5178918895        0.2696619890        0.0000000000
H         7.9967087524       -1.8560848778        0.0000000000
H         8.3626733594        0.5903686685        0.0000000000
H         6.4335452704        2.1580992729        0.0000000000
H         5.6932937147       -2.7906984881        0.0000000000
H         4.0044906739        2.5220744750        0.0000000000
H         3.2638145560       -2.4278956169        0.0000000000
H         1.5783453370        2.8809404481        0.0000000000
H         0.8294957344       -2.0652350420        0.0000000000
H        -0.8200590469        3.2594660336        0.0000000000
H        -3.2329151653        3.6616773550        0.0000000000
H        -5.5502862447        2.7878452291        0.0000000000
H        -7.1035383922        0.8834678063        0.0000000000
H        -7.5154747765       -1.5602158210        0.0000000000
H        -5.6162823084       -3.1606408751        0.0000000000
H        -3.1862782711       -3.5825257315        0.0000000000
H        -0.8523271163       -2.7096315269        0.0000000000
