 44

C         5.8291075727        1.7712471541        0.0464253350
C         5.8521239433        0.3907611494       -0.1591107789
C         4.6322247048        2.4310789410        0.2588113610
C         4.6676989633       -0.3401044056       -0.1622083736
C         4.6721949355       -1.7722409771       -0.3512974959
C         3.5226501619       -2.4762517025       -0.3273572352
C         2.2473137769       -1.8226910910       -0.1353743144
C         1.0797779173       -2.5482393206       -0.0497808524
C         3.4308235135        0.3251550262        0.0319894752
C         2.1960240171       -0.4049780433        0.0053107219
C         0.9622247944        0.2595864570        0.1374300084
C         1.0059463202        1.6617989965        0.4501496966
C         2.1674177481        2.3589454835        0.5047800564
C         3.4233141578        1.7165455086        0.2574011501
C        -0.2589129360       -0.4836885307        0.0311865824
C        -0.1661359522       -1.8922914717        0.0609759951
C        -1.3397585522       -2.6943928338        0.2187694463
C        -2.5638497233       -2.1170979337        0.2942109394
C        -1.5816934712        0.0909645035       -0.1020519975
C        -2.7131497408       -0.7107104068        0.0963556701
C        -3.0338653459        1.9859869503       -0.6161037371
C        -1.7919396323        1.4440219106       -0.5207649513
C        -4.1913620869        1.2159816217       -0.2931842448
C        -4.0354621166       -0.1382343788        0.0500712104
C        -5.1931628113       -0.9013516165        0.3406109391
C        -6.4397879795       -0.3285237428        0.3001117773
C        -6.5880343663        1.0309057432       -0.0377623436
C        -5.4838517190        1.7913296373       -0.3321919918
H         6.7695430125        2.3323609790        0.0434164661
H         6.8086079634       -0.1205934136       -0.3164102249
H         4.6181108257        3.5133244348        0.4299201505
H         5.6381819745       -2.2665332972       -0.5056142649
H         3.5226014561       -3.5648715656       -0.4559840333
H         1.1070260202       -3.6449878960       -0.0771821040
H         0.0629379477        2.1794884332        0.6732076145
H         2.1698859646        3.4268833151        0.7520337212
H        -1.2254964955       -3.7818783484        0.2979454732
H        -3.4684894957       -2.7191203746        0.4687821723
H        -3.1694595314        3.0214012659       -0.9495414640
H        -0.9213130798        2.0547808354       -0.7961710453
H        -5.0712821860       -1.9638961338        0.5996615687
H        -7.3294826909       -0.9239672698        0.5297486380
H        -7.5898584104        1.4716689088       -0.0640276267
H        -5.5873412918        2.8492085143       -0.5988516701
