 42

C         4.9458753043       -1.4685582756        0.0000000000
C         5.6295003884       -0.2559543494        0.0000000000
C         4.9398562108        0.9474122878        0.0000000000
C         3.5378986112        0.9601729811        0.0000000000
C         2.8037825365        2.1916308419        0.0000000000
C         1.4380547320        2.1944119683        0.0000000000
C         0.6798024043        3.4326577464        0.0000000000
C        -0.6655148352        3.4354583691        0.0000000000
C        -1.4289101320        2.2003828428        0.0000000000
C        -2.7946462201        2.2032809204        0.0000000000
C        -0.7005482754        0.9550195444        0.0000000000
C         0.7045171277        0.9520931077        0.0000000000
C         1.4037652170       -0.2744700712        0.0000000000
C         0.7007630732       -1.5032621201        0.0000000000
C         1.4588549892       -2.7280286172        0.0000000000
C         2.8112281047       -2.7247982773        0.0000000000
C         3.5499603521       -1.4883472107        0.0000000000
C         2.8348603191       -0.2672604215        0.0000000000
C        -3.5338735076        0.9748914112        0.0000000000
C        -4.9358638055        0.9679578231        0.0000000000
C        -5.6305086939       -0.2325233860        0.0000000000
C        -4.9519374856       -1.4479522054        0.0000000000
C        -2.8359512002       -0.2554607407        0.0000000000
C        -3.5561144564       -1.4735568786        0.0000000000
C        -2.8225469711       -2.7130676750        0.0000000000
C        -1.4701979379       -2.7219248018        0.0000000000
C        -0.7070159165       -1.5003321319        0.0000000000
C        -1.4049002011       -0.2686201201        0.0000000000
H         5.5028748799       -2.4122852415        0.0000000000
H         6.7247258244       -0.2536021631        0.0000000000
H         5.4886875064        1.8959990258        0.0000000000
H         3.3662559879        3.1334796626        0.0000000000
H         1.2460750655        4.3714118918        0.0000000000
H        -1.2278707743        4.3765652205        0.0000000000
H        -3.3531936426        3.1474652024        0.0000000000
H         0.8895206564       -3.6704709243        0.0000000000
H         3.3775919888       -3.6631520369        0.0000000000
H        -5.4807359435        1.9188236593        0.0000000000
H        -6.7257152937       -0.2256338078        0.0000000000
H        -5.5128689491       -2.3893499736        0.0000000000
H        -3.3928186801       -3.6490512049        0.0000000000
H        -0.9047877320       -3.6667279597        0.0000000000
