 46

C         4.8828561074       -2.5002847112        0.0000000000
C         5.8887739863       -1.5143565320        0.0000000000
C         5.5522420232       -0.1833918298        0.0000000000
C         3.5589308319       -2.1369175804        0.0000000000
C         3.1853110871       -0.7722447791        0.0000000000
C         4.1919915926        0.2121382793        0.0000000000
C         3.8403937776        1.5951908265        0.0000000000
C         2.5275479489        1.9839242484        0.0000000000
C         2.1553498010        3.3861606650        0.0000000000
C         0.8662633315        3.7708219265        0.0000000000
C        -0.2137780300        2.8020536369        0.0000000000
C        -1.5245848463        3.1977586568        0.0000000000
C         1.4825751350        0.9972992061        0.0000000000
C         0.1201109080        1.4034940147        0.0000000000
C         0.7586136299       -1.3234892953        0.0000000000
C         1.8025632943       -0.3688965956        0.0000000000
C        -2.5790096491        2.2357001476        0.0000000000
C        -3.9295411482        2.6453936094        0.0000000000
C        -4.9373300043        1.7069753158        0.0000000000
C        -4.6348346873        0.3394306195        0.0000000000
C        -0.9012311173        0.4421507847        0.0000000000
C        -2.2696633191        0.8589548938        0.0000000000
C        -3.3183850990       -0.0980619403        0.0000000000
C        -0.5670257601       -0.9452845095        0.0000000000
C        -1.6417982701       -1.9319846366        0.0000000000
C        -2.9854398507       -1.5182857738        0.0000000000
C        -4.0004214868       -2.4877445590        0.0000000000
C        -3.6938261433       -3.8367841127        0.0000000000
C        -2.3601197976       -4.2475114512        0.0000000000
C        -1.3479071738       -3.3045463880        0.0000000000
H         5.1669711517       -3.5576232479        0.0000000000
H         6.9399435944       -1.8206926769        0.0000000000
H         6.3303039641        0.5885095436        0.0000000000
H         2.7605806290       -2.8949676001        0.0000000000
H         4.6442237932        2.3418834968        0.0000000000
H         2.9656348986        4.1246176762        0.0000000000
H         0.5932959174        4.8326070792        0.0000000000
H        -1.7865020558        4.2631584078        0.0000000000
H         1.0263812830       -2.3977341882        0.0000000000
H        -4.1650807829        3.7156640149        0.0000000000
H        -5.9856343452        2.0235869848        0.0000000000
H        -5.4476952211       -0.4030194559        0.0000000000
H        -5.0496261041       -2.1540075308        0.0000000000
H        -4.4955960500       -4.5822505274        0.0000000000
H        -2.1165929914       -5.3148546815        0.0000000000
H        -0.2926458455       -3.6188406674        0.0000000000
