 44

C         2.9702658031        3.2192755813       -0.3007109072
C         0.6832107275        2.4907550811       -0.5270013723
C         1.6445099337        3.4988866736       -0.5736137571
C         3.3587844714        1.8971332928       -0.0443259662
C         4.7426125646        1.5763215908        0.1895099970
C         5.1437066324        0.2943125667        0.3427850340
C         4.1971860589       -0.7857499458        0.2547892874
C         4.6203022481       -2.1206620833        0.3181463527
C         3.6991784092       -3.1453342302        0.1842595819
C         2.3483584757       -2.8611939164       -0.0016041772
C         2.3913517470        0.8692218011       -0.0372087348
C         2.8281802021       -0.4927798999        0.0771034877
C         1.8926477666       -1.5433233386       -0.0454486404
C         1.0149367942        1.1758262260       -0.1987608970
C         0.0257349239        0.1026255084       -0.0941635298
C         0.4778029374       -1.2210787218       -0.1673802509
C        -0.4486133615       -2.2788143912       -0.3325776575
C        -1.7924148188       -2.0368748877       -0.3655165401
C        -1.3816508608        0.3265484467        0.0719730957
C        -2.2856329620       -0.7341620099       -0.1218486279
C        -3.2549103810        1.7924056252        0.6398010157
C        -1.9221360857        1.5829046760        0.5132002612
C        -4.1931405462        0.7574472890        0.3270548799
C        -3.7119332573       -0.5094946859       -0.0416779058
C        -4.6437989425       -1.5338494023       -0.3259745881
C        -5.9954076893       -1.2928649735       -0.2527474843
C        -6.4708417168       -0.0207845890        0.1118117095
C        -5.5844685000        0.9901047355        0.4000793398
H         3.7209470786        4.0174374986       -0.3046980959
H        -0.3583656995        2.7572922694       -0.7527502561
H         1.3405730967        4.5203678107       -0.8260951779
H         5.4614423882        2.4025527899        0.2361339810
H         6.1960826382        0.0467843384        0.5227790962
H         5.6824974191       -2.3462527094        0.4652771013
H         4.0309872560       -4.1881816827        0.2243085603
H         1.6277745360       -3.6857166664       -0.1107567270
H        -0.0662942954       -3.3049822891       -0.4440297749
H        -2.5106704294       -2.8514249525       -0.5447249800
H        -3.6406699691        2.7564255890        0.9913764760
H        -1.2267574636        2.3919986697        0.7758396167
H        -4.2642627061       -2.5278053503       -0.6074283717
H        -6.7111107928       -2.0903263407       -0.4777675357
H        -7.5500171639        0.1559591988        0.1646034799
H        -5.9450369850        1.9839496444        0.6884921592
