 44

C         1.1905946621       -0.8190938021        0.0000000000
C         2.3211795259       -1.5851035934        0.0000000000
C         1.2972118193        0.6192697506        0.0000000000
C         2.5692216431        1.2241384350        0.0000000000
C         2.6702999775        2.6307645140        0.0000000000
C         1.5384576832        3.4135083616        0.0000000000
C         0.2733397273        2.8161716363        0.0000000000
C         0.1371679024        1.4350626564        0.0000000000
C        -0.1371901533       -1.4350386486        0.0000000000
C        -2.6702972127       -2.6307142613        0.0000000000
C        -1.5384900614       -3.4134542028        0.0000000000
C        -0.2733814420       -2.8161374598        0.0000000000
C        -1.2972173527       -0.6192489055        0.0000000000
C        -1.1906067300        0.8191070094        0.0000000000
C        -2.3211873409        1.5851081580        0.0000000000
C        -2.5692044108       -1.2241105696        0.0000000000
C         3.7583769961        0.4014314734        0.0000000000
C         3.6249360960       -0.9971284049        0.0000000000
C         4.7802976700       -1.8105640312        0.0000000000
C         6.0311681024       -1.2383551716        0.0000000000
C         6.1679800569        0.1604057936        0.0000000000
C         5.0526709234        0.9656744781        0.0000000000
C        -3.7583495216       -0.4014256503        0.0000000000
C        -3.6249352267        0.9971257644        0.0000000000
C        -4.7803166598        1.8105279505        0.0000000000
C        -6.0311674862        1.2382840547        0.0000000000
C        -6.1679437307       -0.1604829552        0.0000000000
C        -5.0526156628       -0.9657136968        0.0000000000
H         2.2417903576       -2.6844805856        0.0000000000
H         3.6725355356        3.0861104992        0.0000000000
H         1.6201828122        4.5053548220        0.0000000000
H        -0.6280177814        3.4482247091        0.0000000000
H        -3.6725487934       -3.0860200381        0.0000000000
H        -1.6202131602       -4.5052982218        0.0000000000
H         0.6279635850       -3.4482067539        0.0000000000
H        -2.2418038300        2.6844871226        0.0000000000
H         4.6664877809       -2.9005443940        0.0000000000
H         6.9275042191       -1.8671024502        0.0000000000
H         7.1689920697        0.6039242844        0.0000000000
H         5.1466708162        2.0623828930        0.0000000000
H        -4.6665361874        2.9005113586        0.0000000000
H        -6.9275194589        1.8670084553        0.0000000000
H        -7.1689444990       -0.6040259085        0.0000000000
H        -5.1465410136       -2.0624291786        0.0000000000
