 44

C         6.4004085145       -1.8700831809        0.0000000000
C         7.0004985707       -0.5823815993        0.0000000000
C         6.2280972395        0.5413800415        0.0000000000
C         5.0431021900       -2.0014986019        0.0000000000
C         4.2060464748       -0.8446487201        0.0000000000
C         4.8038974416        0.4381060163        0.0000000000
C         3.9855983783        1.5815686596        0.0000000000
C         2.8045689297       -0.9560203879        0.0000000000
C         1.9975271145        0.1727001216        0.0000000000
C         2.6034844781        1.4610850689        0.0000000000
C         1.7642833886        2.6342952745        0.0000000000
C         0.4194611092        2.5268899322        0.0000000000
C         0.5453188547        0.0713027729        0.0000000000
C        -0.2347286587        1.2419224260        0.0000000000
C        -0.0796711763       -1.1872239148        0.0000000000
C        -1.4616081660       -1.2982033758        0.0000000000
C        -3.4605512648       -2.6891911989        0.0000000000
C        -2.1139121150       -2.5865112915        0.0000000000
C        -4.2977988789       -1.5134705819        0.0000000000
C        -5.8827447608        0.8009222395        0.0000000000
C        -6.4710440758       -0.4544650103        0.0000000000
C        -5.6891286667       -1.6076053060        0.0000000000
C        -2.2578274191       -0.1229093816        0.0000000000
C        -1.6493693579        1.1455695453        0.0000000000
C        -2.4922104817        2.3116810308        0.0000000000
C        -3.8425379586        2.2103304981        0.0000000000
C        -4.4868453251        0.9253664949        0.0000000000
C        -3.6864170390       -0.2371152364        0.0000000000
H         7.0470021943       -2.7536985986        0.0000000000
H         8.0929709378       -0.5092063439        0.0000000000
H         6.6823750374        1.5386159625        0.0000000000
H         4.5719932999       -2.9908549953        0.0000000000
H         4.4506585859        2.5752296734        0.0000000000
H         2.3375338675       -1.9540367468        0.0000000000
H         2.2521493484        3.6159553015        0.0000000000
H        -0.2228273400        3.4210011041        0.0000000000
H         0.5498886097       -2.0917148647        0.0000000000
H        -3.9529256532       -3.6684588610        0.0000000000
H        -1.4796619281       -3.4804845989        0.0000000000
H        -6.5056902078        1.7024623841        0.0000000000
H        -7.5626465685       -0.5430917697        0.0000000000
H        -6.1679265458       -2.5933434372        0.0000000000
H        -1.9972432646        3.2949059257        0.0000000000
H        -4.4747519815        3.1056276438        0.0000000000
