 42

C         4.4678050998       -2.1226556031        0.0000000000
C         4.8852387952       -0.8038723046        0.0000000000
C         3.1086893030       -2.4353061207        0.0000000000
C         2.1463180422       -1.4285610610        0.0000000000
C        -2.1463604755        1.4285999558        0.0000000000
C        -3.1088136693        2.4352984260        0.0000000000
C        -4.4679129685        2.1225681451        0.0000000000
C        -4.8852855775        0.8037997422        0.0000000000
C         2.5639112274       -0.0754940520        0.0000000000
C         3.9401940257        0.2344937509        0.0000000000
C         4.3518033360        1.6122126705        0.0000000000
C         3.4386164044        2.6124949136        0.0000000000
C         1.5989805513        0.9870555771        0.0000000000
C         2.0308282848        2.3254207531        0.0000000000
C         1.0756393955        3.3604525983        0.0000000000
C        -0.2690509255        3.0666806854        0.0000000000
C        -0.7232316692        1.7326210675        0.0000000000
C         0.2125955241        0.6894864820        0.0000000000
C         0.7232285259       -1.7325420286        0.0000000000
C        -0.2125934912       -0.6894275275        0.0000000000
C        -1.0755317989       -3.3604363725        0.0000000000
C         0.2691278551       -3.0666054077        0.0000000000
C        -2.0307682233       -2.3254204718        0.0000000000
C        -1.5989704149       -0.9870348769        0.0000000000
C        -2.5639213951        0.0754986958        0.0000000000
C        -3.9402131669       -0.2345190054        0.0000000000
C        -4.3517747303       -1.6122536648        0.0000000000
C        -3.4385508594       -2.6125364318        0.0000000000
H         5.2066285279       -2.9309568086        0.0000000000
H         5.9539206183       -0.5613344387        0.0000000000
H         2.7803610213       -3.4861222903        0.0000000000
H        -2.7805946272        3.4861504616        0.0000000000
H        -5.2066976557        2.9309027321        0.0000000000
H        -5.9539383532        0.5611501185        0.0000000000
H         5.4261424719        1.8295340001        0.0000000000
H         3.7518408515        3.6628453238        0.0000000000
H         1.4138931368        4.4029235521        0.0000000000
H        -1.0192544692        3.8728189405        0.0000000000
H        -1.4137914893       -4.4029053517        0.0000000000
H         1.0194023593       -3.8726733382        0.0000000000
H        -5.4260992642       -1.8296658713        0.0000000000
H        -3.7517774669       -3.6628877219        0.0000000000
