 46

C         5.9669495330        1.3705038959        0.4798240187
C         5.7355260178        0.0856029697        0.0635762857
C         3.5893516264        1.7700179418        0.5962446324
C         4.8761007038        2.2100906830        0.7761088603
C         3.3080372348        0.4659833926        0.1113993952
C         4.4100888214       -0.3930504750       -0.0892893858
C         4.1945239829       -1.7682416299       -0.3937425132
C         2.9316991598       -2.2677153832       -0.3986070312
C         1.9695420627       -0.0370405796       -0.1032056710
C         1.7994632048       -1.4178159507       -0.2184525751
C         0.7910918084        0.8104733465       -0.2100697842
C        -0.2424152531        2.9940337176       -0.5437351171
C         0.8720312408        2.1960463761       -0.4905145745
C         0.4803843562       -2.0178154997       -0.1448333351
C         0.3088668108       -3.4125616472       -0.1354399016
C        -0.9473317348       -3.9707978183        0.0086937524
C        -2.0673195025       -3.1523271932        0.1341526436
C        -0.4882774963        0.2387228168       -0.1115844148
C        -0.6516707316       -1.1886139142       -0.0334918542
C        -1.9370624237       -1.7663850820        0.1040440814
C        -3.1116167176       -0.9079763728        0.1871907750
C        -4.3850479227       -1.4322264759        0.3787269014
C        -5.5021616019       -0.5948973270        0.4268284321
C        -5.3604227299        0.7701198902        0.2734018933
C        -1.5238793146        2.4478122145       -0.3217522038
C        -1.6474661871        1.0640853480       -0.1304145111
C        -2.9522156982        0.4915372590        0.0461882275
C        -4.0853862929        1.3300833810        0.0764583472
C        -3.9207418777        2.7456182149       -0.1010795434
C        -2.6919368460        3.2806955031       -0.3018707053
H         6.9879341717        1.7461859028        0.6008376041
H         6.5706847463       -0.5937077918       -0.1427904276
H         2.7582934273        2.4421457612        0.8496504651
H         5.0650293533        3.2185780074        1.1588968095
H         5.0597846786       -2.4141902112       -0.5813437870
H         2.7596971636       -3.3430923716       -0.5569830612
H        -0.1475237013        4.0644515120       -0.7599833783
H         1.8542812527        2.6507636301       -0.6793465130
H         1.1895116377       -4.0638517695       -0.2393390069
H        -1.0659407074       -5.0592363923        0.0239875898
H        -3.0692592975       -3.5930236379        0.2523656017
H        -4.5039761717       -2.5214248451        0.4859928335
H        -6.4947164259       -1.0304721143        0.5824368958
H        -6.2377911553        1.4260738573        0.3030350750
H        -4.8150037076        3.3787535361       -0.0740643877
H        -2.5616646536        4.3592865470       -0.4464927388
