 44

C         4.9352786623       -1.2162463647        0.0000000000
C         5.6218603198       -0.0081373865        0.0000000000
C         4.9387364946        1.2019924302        0.0000000000
C         3.5391002050        1.2228204566        0.0000000000
C         2.8057700436        2.4566795099        0.0000000000
C         1.4398763542        2.4649015246        0.0000000000
C         0.6783547891        3.7016421418        0.0000000000
C        -0.6676583491        3.7035846231        0.0000000000
C        -1.4327494483        2.4690506658        0.0000000000
C        -2.7986664655        2.4647708576        0.0000000000
C        -0.7000686099        1.2263736988        0.0000000000
C         0.7036122338        1.2243444973        0.0000000000
C         1.4055071971       -0.0020379484        0.0000000000
C         2.7986762410       -2.4647609138        0.0000000000
C         3.5355436231       -1.2330406648        0.0000000000
C         2.8322904539       -0.0040979046        0.0000000000
C        -3.5355586720        1.2330349667        0.0000000000
C        -4.9352474823        1.2162425373        0.0000000000
C        -5.6218609217        0.0080885636        0.0000000000
C        -4.9387693950       -1.2019966465        0.0000000000
C        -2.8322872800        0.0040779499        0.0000000000
C        -3.5390777457       -1.2228294314        0.0000000000
C        -2.8057769710       -2.4566693297        0.0000000000
C        -1.4055066040        0.0020230595        0.0000000000
C        -0.7036297530       -1.2243379996        0.0000000000
C        -1.4398551791       -2.4648862370        0.0000000000
C        -0.6783456190       -3.7016173312        0.0000000000
C         0.6676403793       -3.7035627105        0.0000000000
C         1.4327264772       -2.4690397988        0.0000000000
C         0.7000878061       -1.2263619533        0.0000000000
H         5.4884804013       -2.1622402767        0.0000000000
H         6.7171727054       -0.0096491263        0.0000000000
H         5.4947821219        2.1463185004        0.0000000000
H         3.3711497029        3.3967480908        0.0000000000
H         1.2432212765        4.6412452354        0.0000000000
H        -1.2298078979        4.6448168005        0.0000000000
H        -3.3613279273        3.4064702482        0.0000000000
H         3.3612980722       -3.4064830811        0.0000000000
H        -5.4885677046        2.1621685322        0.0000000000
H        -6.7171744652        0.0097265591        0.0000000000
H        -5.4947227185       -2.1463779403        0.0000000000
H        -3.3711024598       -3.3967705825        0.0000000000
H        -1.2432006617       -4.6412250872        0.0000000000
H         1.2297664004       -4.6448057606        0.0000000000
