 46

C         1.4618720817        2.1061233460        0.2008632081
C         1.6144656887        3.4718966805        0.4228320533
C         0.5020362017        4.2989578061        0.5648908064
C        -0.7684344162        3.7699296586        0.4503607885
C        -0.0290443502        0.1191625377        0.0117474587
C         0.1634436583        1.5464023897        0.1267684394
C        -0.9534427648        2.3979167549        0.2110298905
C        -1.3079339310       -0.4312643081       -0.0038205995
C         2.6307747714        1.2504535347        0.0364514625
C         4.8638346711       -0.4147848749       -0.3075047456
C         5.0278525802        0.9439236294       -0.1621830714
C         3.9138899198        1.7753884655        0.0122425457
C         3.5709129176       -0.9792017386       -0.2767845562
C         2.4443227623       -0.1487627592       -0.1073295192
C         1.1314763276       -0.7248312111       -0.0700394343
C         0.9890185767       -2.1094095080       -0.1407963113
C         2.1430566302       -2.9305894984       -0.3357440831
C         3.3867807665       -2.3902426517       -0.4096943692
C        -2.4415719111        0.4624786331       -0.1966699985
C        -2.2746415527        1.8495475203       -0.0196388795
C        -3.3829637521        2.7114612365       -0.1427886183
C        -4.6196192467        2.2293125209       -0.5103424855
C        -4.7699313619        0.8664395704       -0.7892738052
C        -3.7028215053        0.0072426349       -0.6357202940
C        -0.3128996059       -2.6924259390        0.0409149405
C        -1.4443168204       -1.8606476091        0.1724915779
C        -2.6648066742       -2.4735729554        0.5517092485
C        -2.7775261709       -3.8346274455        0.6935243715
C        -1.6668337065       -4.6631824408        0.4605245068
C        -0.4565186546       -4.0969527468        0.1504917632
H         2.6290234063        3.8950013622        0.4837067076
H         0.6394468379        5.3683427968        0.7552975392
H        -1.6524117481        4.4202893858        0.5324688474
H         5.7313882598       -1.0700738799       -0.4448463609
H         6.0296092217        1.3856213422       -0.1816707717
H         4.0533587878        2.8607697091        0.1324771035
H         1.9960252633       -4.0181876517       -0.4180833987
H         4.2685083153       -3.0229161753       -0.5627302972
H        -3.2400302705        3.7861307399        0.0480819032
H        -5.4752671521        2.9056230262       -0.6033251480
H        -5.7376263278        0.4853345333       -1.1317484664
H        -3.8446614824       -1.0576160424       -0.8656646473
H        -3.5451947570       -1.8454088157        0.7447451077
H        -3.7314111055       -4.2821267283        0.9915651274
H        -1.7708719943       -5.7495882046        0.5447769608
H         0.4301375098       -4.7296594569       -0.0073338140
