 48

C        -6.2980779461       -0.0207603133        1.1213568251
C        -6.5346410310       -1.2563397139        0.4575901638
C        -5.5191459457       -1.9062711677       -0.1766464168
C        -5.0546319256        0.5359400934        1.1266847775
C        -3.9680584454       -0.1144249395        0.4621668230
C        -4.2016587601       -1.3517583332       -0.1847904729
C        -3.1265985660       -2.0144250043       -0.7925868972
C        -2.6850289545        0.4534205079        0.4378335254
C        -1.6230507772       -0.1678271159       -0.2134030364
C        -1.8540915544       -1.4542318984       -0.7830625776
C        -0.7367508857       -2.1966992925       -1.2944575035
C         0.5225606639       -1.7608165095       -1.0691000361
C        -0.2774619402        0.3889066141       -0.2584715239
C         0.7876793148       -0.4898318791       -0.4502282260
C         0.0039403971        1.8065729905       -0.1797851106
C         1.3427625096        2.2403321320       -0.1051182227
C         1.6243342933        3.6260498887       -0.1051191435
C         0.6203494953        4.5595009256       -0.1969165729
C        -0.7107919927        4.1332948573       -0.3069633328
C        -1.0055164145        2.7906008196       -0.3006004261
C         2.4149004718        1.2735864817       -0.0246342726
C         2.1429597872       -0.0906920535       -0.1284715296
C         4.7901959383        0.8493039335        0.2454725756
C         3.7600709225        1.7260409046        0.1416550347
C         4.5320467194       -0.5527887809        0.2780528482
C         3.2124952943       -1.0303958298        0.1320313417
C         3.0056062545       -2.4204114444        0.3262728485
C         4.0487500159       -3.2769439629        0.5743748613
C         5.3685999273       -2.7939788274        0.6447398001
C         5.6038720655       -1.4505040076        0.5062635765
H        -7.1340084899        0.4734958809        1.6271352514
H        -7.5465442342       -1.6743791165        0.4677593816
H        -5.6894385165       -2.8602057098       -0.6882372810
H        -4.8643387101        1.4872781122        1.6363771346
H        -3.2899280820       -2.9931506814       -1.2606527446
H        -2.5315091184        1.4137509817        0.9516702902
H        -0.9280490205       -3.1327158476       -1.8313222260
H         1.3787953351       -2.3633332364       -1.4018507363
H         2.6700898036        3.9599990689       -0.0344789626
H         0.8522593420        5.6293521408       -0.1934944902
H        -1.5111252864        4.8740240841       -0.4055286357
H        -2.0547973705        2.4816972829       -0.4044161033
H         5.8244245934        1.2005112977        0.3371189178
H         3.9535834612        2.8085573844        0.1705702647
H         1.9856392048       -2.8255786605        0.2814064212
H         3.8601046213       -4.3451943730        0.7243956251
H         6.1924978547       -3.4924906933        0.8221500377
H         6.6222117265       -1.0517971579        0.5809266370
