 48

C         5.8311810623       -2.8736333702        0.0000000000
C         6.5541013488       -1.6541360183        0.0000000000
C         5.8950057619       -0.4574099627        0.0000000000
C         4.4649656271       -2.8697397219        0.0000000000
C         3.7515034987       -1.6369331752        0.0000000000
C         4.4710386968       -0.4231085761        0.0000000000
C         3.7620622274        0.7973832693        0.0000000000
C         2.3405394809       -1.6005797537        0.0000000000
C         1.6525801505       -0.4014743772        0.0000000000
C         2.3800220821        0.8254761289        0.0000000000
C         0.2531686016        2.1114143785        0.0000000000
C         1.6578012950        2.0944446269        0.0000000000
C         2.3557185293        3.3125140604        0.0000000000
C         1.6809099668        4.5201932796        0.0000000000
C         0.2860231071        4.5366928615        0.0000000000
C        -0.4166750908        3.3450973163        0.0000000000
C         0.1922726565       -0.3782760629        0.0000000000
C        -0.4971355220        0.8598422385        0.0000000000
C        -1.8864273434        0.8651991810        0.0000000000
C        -0.5363676299       -1.5621100272        0.0000000000
C        -1.9389644461       -1.5561170997        0.0000000000
C        -2.6256813333       -0.3262875706        0.0000000000
C        -4.0345082119       -2.7815367484        0.0000000000
C        -2.6814163909       -2.7880538562        0.0000000000
C        -4.7669521316       -1.5436757685        0.0000000000
C        -4.0733611014       -0.3209337749        0.0000000000
C        -4.8048694960        0.8846640905        0.0000000000
C        -6.1816205462        0.8677332920        0.0000000000
C        -6.8724437183       -0.3543974874        0.0000000000
C        -6.1773680028       -1.5435270077        0.0000000000
H         6.3856979211       -3.8177672815        0.0000000000
H         7.6485262203       -1.6875041627        0.0000000000
H         6.4459443671        0.4897718485        0.0000000000
H         3.8984256830       -3.8076609642        0.0000000000
H         4.3263622283        1.7438908577        0.0000000000
H         1.7807334423       -2.5497741261        0.0000000000
H         3.4563746859        3.2948022558        0.0000000000
H         2.2395017405        5.4617431508        0.0000000000
H        -0.2502485456        5.4911131599        0.0000000000
H        -1.5175332876        3.3523792201        0.0000000000
H        -2.4349619221        1.8267970324        0.0000000000
H        -0.0002980179       -2.5250546387        0.0000000000
H        -4.6037611585       -3.7182431803        0.0000000000
H        -2.1206620929       -3.7297759517        0.0000000000
H        -4.2472106191        1.8339090669        0.0000000000
H        -6.7449363662        1.8065241218        0.0000000000
H        -7.9673263396       -0.3547139073        0.0000000000
H        -6.7125948869       -2.4999062769        0.0000000000
