 48

C         5.3754953947       -3.0368934675        0.0804458908
C         3.9967739273       -3.1586854374        0.3207786494
C         3.1839308169       -2.0507660905        0.2922513137
C         5.9164864291       -1.7930848729       -0.1322722610
C         5.0943270695       -0.6422283800       -0.1330707491
C         3.6959184624       -0.7593787699        0.0188382879
C         4.9528789287        1.7654235513       -0.1056161169
C         5.7066126529        0.6475252280       -0.2325548385
C         3.5296935058        1.6734462085        0.0209169799
C         2.8743439067        0.4353509402       -0.0336330949
C         1.4361675752        2.8528298071        0.2815317338
C         2.7930500465        2.8782764364        0.1964437927
C         0.7207712950        1.6357387465        0.0925358391
C         1.4357098367        0.4469846895       -0.1318477650
C         0.6792944114       -0.6886445248       -0.5495069084
C        -0.6798301670       -0.6886301327       -0.5496109630
C        -0.7212090666        1.6358501473        0.0923665261
C        -1.4360813067        0.4471009265       -0.1320062447
C        -2.7936598610        2.8783518433        0.1951345203
C        -1.4368006875        2.8529104730        0.2809620408
C        -3.5302365346        1.6734683082        0.0196809700
C        -2.8746772550        0.4354704323       -0.0339857446
C        -5.7066757582        0.6466557602       -0.2344104670
C        -4.9533784758        1.7648975843       -0.1076357691
C        -5.0941557025       -0.6428760396       -0.1335443255
C        -3.6958264132       -0.7594425593        0.0192242629
C        -3.1832774200       -2.0501761750        0.2946884338
C        -3.9956791416       -3.1583739595        0.3240229970
C        -5.3742772390       -3.0374145321        0.0824100217
C        -5.9157629760       -1.7941277925       -0.1320772561
H         6.0082362242       -3.9301118761        0.0811926086
H         3.5738191376       -4.1454518980        0.5366727675
H         2.1128377383       -2.1767149482        0.5002447427
H         6.9946829349       -1.6758582636       -0.2918356004
H         5.4132994504        2.7603026576       -0.1170769746
H         6.7916127685        0.7069021267       -0.3756352232
H         0.8729246890        3.7794876707        0.4660651933
H         3.3404174386        3.8245543877        0.2805446412
H         1.2125681294       -1.5809429036       -0.9058841269
H        -1.2135984755       -1.5804655991       -0.9064428476
H        -3.3410880423        3.8246409616        0.2786715126
H        -0.8736474817        3.7796438871        0.4653988581
H        -6.7916368475        0.7056304497       -0.3779527271
H        -5.4141264759        2.7596126525       -0.1198020113
H        -2.1122963975       -2.1746190829        0.5042335917
H        -3.5725844859       -4.1446830070        0.5417092208
H        -6.0066157065       -3.9309209015        0.0839371917
H        -6.9939265204       -1.6775475572       -0.2923101835
