 48

C         4.2221387036        2.5647972383       -0.1258636105
C         3.3589471529        1.4291074652       -0.0590429290
C         2.1461943076        1.4393036137       -0.7873298864
C         1.8275726700        2.5780117301       -1.5889445736
C         2.6752042284        3.6448517173       -1.6377339835
C         3.8861562710        3.6398372732       -0.8941217131
C         1.2749451583        0.3388175985       -0.7048528395
C         1.5746997182       -0.7617049290        0.0884121240
C         2.8467902715       -0.8062485245        0.7328102050
C         3.6999326595        0.2875393212        0.6851655453
C         0.6944141997       -1.9207302851        0.1766241517
C         1.2762552028       -3.1393823186        0.5595652033
C         2.5612415533       -3.1609823612        1.2116957936
C         3.2844673427       -2.0312069112        1.3547974082
C        -0.6923732635       -1.9213799964       -0.1759869037
C        -1.2729812101       -3.1405670750       -0.5590377178
C        -0.6055861924       -4.3631094821       -0.3148325437
C         0.6091933609       -4.3624821593        0.3170734099
C        -1.5739362003       -0.7632598791       -0.0880942526
C        -2.8459276935       -0.8092473801       -0.7326070835
C        -3.2809726479       -2.0339554387       -1.3570300608
C        -2.5565948625       -3.1629789072       -1.2138347202
C        -1.2753027791        0.3377895410        0.7048054253
C        -2.1478858933        1.4372775665        0.7871257993
C        -3.3616624711        1.4247523666        0.0606433404
C        -3.7012344193        0.2827106617       -0.6834547016
C        -1.8290000141        2.5775402466        1.5864244899
C        -2.6777501864        3.6435015502        1.6352844349
C        -3.8904315951        3.6355144362        0.8945638512
C        -4.2265760885        2.5590203569        0.1284148304
H        -4.5490358318        4.5083071233        0.9517951913
H        -2.4373556324        4.5212080151        2.2441494018
H        -0.8899575583        2.5764501795        2.1517220562
H        -5.1606125699        2.5421006821       -0.4442710237
H        -0.3403387292        0.3613289496        1.2822230849
H        -4.6645605634        0.2491481462       -1.2075102053
H        -2.9123828927       -4.1195516409       -1.6139604075
H        -4.2323817841       -2.0312535890       -1.9010205954
H         1.0932879785       -5.3032426045        0.6030798969
H        -1.0891873682       -5.3044672770       -0.5997135793
H         4.2371445508       -2.0276852506        1.8965621510
H         2.9194056670       -4.1177955885        1.6091423085
H         0.3402576190        0.3609815703       -1.2826928860
H         4.6628144325        0.2558149680        1.2101058042
H         0.8898254597        2.5750118837       -2.1563593427
H         2.4356265673        4.5208257961       -2.2494257515
H         4.5435063488        4.5135877894       -0.9506940999
H         5.1546910629        2.5497029774        0.4492655668
