 48

C         7.5033494619       -0.4474010997        0.4005168529
C         7.5953506128        0.9433348495        0.1177438380
C         6.4733230697        1.6739794499       -0.1340058856
C         6.2918818503       -1.0703058167        0.4244895195
C         5.0943245090       -0.3335967395        0.1653657181
C         5.1864624552        1.0516789913       -0.1173192783
C         4.0163485067        1.7813980154       -0.3756653117
C         3.8367404580       -0.9551787925        0.1869026575
C         2.6746524471       -0.2318747905       -0.0609964785
C         2.7752724677        1.1560715883       -0.3506933081
C         1.5712753079        1.8894118346       -0.6303384220
C         0.3590364951        1.2987929198       -0.5399287270
C         1.3625321387       -0.8539511796       -0.0272647640
C         0.2017628519       -0.0851804210       -0.1717603808
C         0.0550686043       -2.8814912722        0.0485351506
C         1.2666410467       -2.2641767104        0.1156321538
C        -1.1369299468       -2.1137762449       -0.0534192457
C        -1.0913562513       -0.7071060946       -0.0423634577
C        -3.5463800227       -2.1116486226       -0.2340301228
C        -2.3796110751       -2.8032786194       -0.1739678014
C        -3.5550829717       -0.6964454816       -0.0622624559
C        -2.3469710443       -0.0036202741        0.0984406707
C        -2.4177911234        1.3732529688        0.4884906734
C        -3.5989525212        2.0344107782        0.5938663974
C        -4.8154438625        0.0034504512       -0.0044394149
C        -4.8326190848        1.3729604145        0.3109960188
C        -6.0618663481        2.0715901895        0.3607576532
C        -7.2406372390        1.4157421212        0.1041520812
C        -7.2313842771        0.0421699197       -0.2055253780
C        -6.0464424704       -0.6496224860       -0.2562969441
H         8.4236930890       -1.0066342292        0.5981726656
H         8.5837398338        1.4142720723        0.1064260758
H         6.5340583308        2.7460516582       -0.3526562843
H         6.2117785412       -2.1413972779        0.6416687993
H         4.0855722637        2.8534377040       -0.5978487752
H         3.7677604481       -2.0332471175        0.4030567992
H         1.6638088945        2.9400570210       -0.9295334903
H        -0.5404842385        1.8815891551       -0.7810453939
H        -0.0195993109       -3.9745359456        0.0866094649
H         2.1922602831       -2.8451255453        0.2464413630
H        -4.5075816502       -2.6278032638       -0.3788413550
H        -2.3714048699       -3.8978383307       -0.2344959012
H        -1.4863260683        1.9027917074        0.7309082817
H        -3.6277520123        3.0848312025        0.9060377960
H        -6.0574409688        3.1399738873        0.6046224879
H        -8.1941783735        1.9525628996        0.1388669929
H        -8.1787950666       -0.4692065922       -0.4048848216
H        -6.0332465335       -1.7242124768       -0.4931210639
