 46

C         3.3057485097       -2.0540898430        0.5965110143
C         1.9741985811       -1.8458246039        0.4902181982
C         1.4186366684       -0.5759139787        0.0958019984
C         2.3232255787        0.5054442931       -0.0600679367
C         1.8378690770        1.8020165977       -0.2423815251
C         0.4713244007        2.0555319022       -0.2049928113
C        -0.0159353376        3.4092734611       -0.2497291493
C        -1.3363623837        3.6790856287       -0.1351674526
C        -2.2863964991        2.6121740233        0.0134822104
C        -3.6619150873        2.8922872868        0.1857748066
C        -4.5716640667        1.8739601681        0.3189821395
C        -1.8420228412        1.2826468666       -0.0084730169
C         0.0261822903       -0.3591478326       -0.0691613792
C        -0.4400877880        0.9745488748       -0.1088805791
C        -0.9669583337       -1.4293183110       -0.1965750596
C        -2.9231311347       -3.4746932321       -0.3186739185
C        -1.6014624890       -3.7471257606       -0.6014963330
C        -0.6383229145       -2.7358990949       -0.5471252192
C        -3.3141122444       -2.1526350470       -0.0447984745
C        -2.3465606961       -1.1263013245       -0.0262093123
C        -2.7880778140        0.2306448554        0.0995453398
C        -4.1502822697        0.5253280183        0.2632595964
C        -5.0976227407       -0.5482929963        0.3407878087
C        -4.6952908500       -1.8332219377        0.1847892724
C         3.7561065093        0.2735553377       -0.0094780209
C         4.2417734425       -1.0053746991        0.3052943754
C         5.6306173662       -1.2421637267        0.3483732764
C         6.5159646216       -0.2207844176        0.0827589659
C         6.0372350530        1.0612111365       -0.2272816948
C         4.6821777144        1.3050955664       -0.2703930659
H         3.6994990989       -3.0264885118        0.9146691975
H         1.2839028483       -2.6642947044        0.7372747397
H         2.5513838433        2.6304061260       -0.3805560656
H         0.7172018765        4.2161307574       -0.3643736259
H        -1.7091791941        4.7095473627       -0.1510693177
H        -3.9912019755        3.9374223121        0.2133805904
H        -5.6363971426        2.0935851349        0.4580136358
H        -3.6739202744       -4.2726687203       -0.3287132123
H        -1.2950810470       -4.7643147689       -0.8680686321
H         0.4009218152       -3.0008910204       -0.7851709297
H        -6.1514629497       -0.3016946603        0.5130446557
H        -5.4164344806       -2.6579019080        0.2220127642
H         5.9952781084       -2.2457043852        0.5951234577
H         7.5952572394       -0.4020420716        0.1128356203
H         6.7483684744        1.8673582491       -0.4351977635
H         4.3012055440        2.3096444416       -0.5090964068
