 48

C        -7.8043075274        0.7085978490        0.0000000000
C        -7.8030075752       -0.7229796706        0.0000000000
C        -6.6364468139       -1.4128112089        0.0000000000
C        -6.6389980766        1.4005400454        0.0000000000
C        -5.3748013947        0.7109777471        0.0000000000
C        -5.3734951592       -0.7209654079        0.0000000000
C        -4.1749960286       -1.4096667937        0.0000000000
C        -4.1775644779        1.4018594769        0.0000000000
C        -2.9440551337        0.7097414411        0.0000000000
C        -2.9427455178       -0.7152922049        0.0000000000
C        -1.7165408366       -1.4075163443        0.0000000000
C        -1.7191302220        1.4042159914        0.0000000000
C        -0.5146922903        0.7133137983        0.0000000000
C        -0.5133658303       -0.7144005946        0.0000000000
C         0.7428543914       -1.3974355224        0.0000000000
C         0.7402538724        1.3986722620        0.0000000000
C         1.9308418737        0.7228329748        0.0000000000
C         1.9322185261       -0.7193764418        0.0000000000
C         3.2039925581        1.4398616507        0.0000000000
C         4.4187851887        0.7341387782        0.0000000000
C         5.6255104650        1.4498114541        0.0000000000
C         5.6331260394        2.8339070842        0.0000000000
C         4.4277540350        3.5346183748        0.0000000000
C         3.2289575370        2.8428780301        0.0000000000
C         4.4201845298       -0.7258669086        0.0000000000
C         3.2067767737       -1.4339650661        0.0000000000
C         3.2345338641       -2.8369414244        0.0000000000
C         4.4346958846       -3.5263013282        0.0000000000
C         5.6386759536       -2.8232184151        0.0000000000
C         5.6283189546       -1.4391620252        0.0000000000
H        -8.7677725437        1.2287096061        0.0000000000
H        -8.7655329991       -1.2448300876        0.0000000000
H        -6.6253243687       -2.5086903486        0.0000000000
H        -6.6298571524        2.4964362038        0.0000000000
H        -4.1694507720       -2.5067160279        0.0000000000
H        -4.1740214912        2.4989145647        0.0000000000
H        -1.7182136428       -2.5045191161        0.0000000000
H        -1.7228226408        2.5012108250        0.0000000000
H         0.7386786235       -2.4995952702        0.0000000000
H         0.7340556918        2.5008209255        0.0000000000
H         6.5751000390        0.8931074977        0.0000000000
H         6.5831951164        3.3778926450        0.0000000000
H         4.4301760682        4.6293854731        0.0000000000
H         2.2748755584        3.3920204071        0.0000000000
H         2.2815542590       -3.3879936181        0.0000000000
H         4.4392878142       -4.6210617834        0.0000000000
H         6.5898231677       -3.3653123770        0.0000000000
H         6.5768059088       -0.8805844369        0.0000000000
