 48

C         5.4838495237       -1.8349787659       -0.8362330960
C         6.2904168397       -0.7576846959       -0.3710067795
C         5.7166802538        0.3942500920        0.0724285710
C         4.1264061834       -1.7336584203       -0.8378054362
C         3.4881040097       -0.5406758031       -0.3692131921
C         4.2927343663        0.5362560571        0.0786741399
C         3.6717071544        1.7195910552        0.4893797583
C         2.0932921258       -0.4248628813       -0.3433644576
C         1.4575922910        0.7286161385        0.1189400067
C         2.2822867029        1.8332997490        0.4842527998
C         1.6752859115        3.0953213213        0.7896959367
C         0.3419201631        3.2608223081        0.6321160503
C         0.0127142377        0.8822784713        0.1683087837
C        -0.5091347805        2.1621706443        0.2787697742
C        -0.9151858517       -0.2460580809        0.1174108421
C        -2.2936337045       -0.0062979552       -0.1723388209
C        -3.1786639930       -1.0672672507       -0.2766505236
C        -0.5297893678       -1.5432407162        0.4207539585
C        -1.4285678198       -2.6251698718        0.3477356591
C        -2.7657603431       -2.3904636294       -0.0374870646
C        -3.6670740575       -3.4906285951       -0.1428544733
C        -3.2407981923       -4.7559926588        0.1392444323
C        -1.9001305702       -4.9915279659        0.5423780070
C        -1.0151332350       -3.9578288143        0.6459115957
C        -2.7791027446        1.3601294930       -0.2822464738
C        -1.9169133076        2.4246962152        0.0214993095
C        -2.4265764923        3.7368186364        0.0077071578
C        -3.7421481087        3.9850729462       -0.3289555388
C        -4.5903177058        2.9250095755       -0.6631843353
C        -4.1137043120        1.6299267863       -0.6352082377
H         5.9775257789       -2.7452087961       -1.1920919733
H         7.3790252781       -0.8745749662       -0.3787568458
H         6.3273435742        1.2310049702        0.4296936314
H         3.4986430225       -2.5578130578       -1.1952769418
H         4.2868451534        2.5727045832        0.8020952105
H         1.4976426686       -1.2768382756       -0.7028748472
H         2.3162813037        3.9238183718        1.1121548916
H        -0.1210991069        4.2456458551        0.7953726515
H        -4.2322983485       -0.8713075432       -0.5334454619
H         0.5049184377       -1.7595463485        0.7250560635
H        -4.7005712868       -3.2969535104       -0.4509704310
H        -3.9256270274       -5.6066787553        0.0606557285
H        -1.5894899163       -6.0168985475        0.7682341575
H         0.0212648654       -4.1308732517        0.9572194869
H        -1.7601583818        4.5737391400        0.2644942772
H        -4.1234644780        5.0113224741       -0.3391357026
H        -5.6303287236        3.1246971418       -0.9406088279
H        -4.7781355135        0.7873694106       -0.8802500481
