 48

C         7.1101043785       -2.6184810767        0.0000000000
C         7.8021841351       -1.3710415549        0.0000000000
C         7.1144812183       -0.1989786697        0.0000000000
C         5.7516759126       -2.6553700070        0.0000000000
C         4.9891755760       -1.4401545696        0.0000000000
C         5.6798353782       -0.1952306702        0.0000000000
C         4.9584457977        0.9973357182        0.0000000000
C         3.5955001575       -1.4592033224        0.0000000000
C         2.8683564170       -0.2619990256        0.0000000000
C         3.5577466682        0.9809426211        0.0000000000
C         2.8026306138        2.1900505428        0.0000000000
C         1.4434951659       -0.2621710722        0.0000000000
C         0.7307922588        0.9105296606        0.0000000000
C         1.4309429424        2.1649569217        0.0000000000
C         0.6708891640        3.4009872699        0.0000000000
C        -0.6726812528        3.4006305500        0.0000000000
C        -0.7312635935        0.9101435256        0.0000000000
C        -1.4320820062        2.1642011311        0.0000000000
C        -2.8037935745        2.1885675291        0.0000000000
C        -1.4433510386       -0.2629446373        0.0000000000
C        -2.8682135538       -0.2635233313        0.0000000000
C        -3.5582653829        0.9790545794        0.0000000000
C        -4.9589871521        0.9946987549        0.0000000000
C        -3.5947345335       -1.4611207390        0.0000000000
C        -4.9884154448       -1.4428057826        0.0000000000
C        -5.6797359671       -0.1982483363        0.0000000000
C        -7.1143806450       -0.2027561784        0.0000000000
C        -7.8014549555       -1.3751764921        0.0000000000
C        -7.1087126335       -2.6222540953        0.0000000000
C        -5.7502749588       -2.6584273304        0.0000000000
H         7.6965296934       -3.5431009319        0.0000000000
H         8.8970575258       -1.3792083510        0.0000000000
H         7.6373362806        0.7641487595        0.0000000000
H         5.2112904616       -3.6087610790        0.0000000000
H         5.4897860077        1.9570573553        0.0000000000
H         3.0623629047       -2.4178563598        0.0000000000
H         3.3423228831        3.1453785292        0.0000000000
H         0.9073174072       -1.2251369770        0.0000000000
H         1.2350084170        4.3412148344        0.0000000000
H        -1.2372942088        4.3405611351        0.0000000000
H        -3.3439839958        3.1436137360        0.0000000000
H        -0.9066589441       -1.2256236305        0.0000000000
H        -5.4908181541        1.9541485706        0.0000000000
H        -3.0610775246       -2.4194855315        0.0000000000
H        -7.6377367976        0.7600985144        0.0000000000
H        -8.8963244722       -1.3839370753        0.0000000000
H        -7.6946615109       -3.5471767240        0.0000000000
H        -5.2093735438       -3.6115252407        0.0000000000
