 48

C         6.9002397862       -0.9059627218        0.0689921704
C         7.4961870460        0.3141134049       -0.1854227083
C         6.7083033511        1.4549691771       -0.3745182803
C         5.3317993015        1.3658881681       -0.3077062714
C         5.5001965529       -1.0104343025        0.1395383778
C         4.7065463164        0.1334421525       -0.0501375260
C         3.5328165912       -2.3996644426        0.4750722448
C         4.8740526954       -2.2846990417        0.4057177501
C         2.6709287613       -1.2538433921        0.2858902268
C         3.2567043941        0.0250943129        0.0229106146
C         2.4413993601        1.1241327525       -0.1523657361
C         1.2991159000       -1.3857944803        0.3551545497
C         0.4537064304       -0.2651292096        0.1662014274
C         1.0333630007        1.0038195287       -0.0791573484
C         0.1852595733        2.1215283886       -0.2126138392
C        -0.9514656181       -0.3920273423        0.2100423992
C        -1.7930486182        0.6890151834        0.0043399658
C        -1.1901215511        1.9813860699       -0.1436413867
C        -2.0191402472        3.1597844343       -0.1431571536
C        -3.3459281557        3.0571267582        0.0740924390
C        -3.2497507486        0.5899993115        0.0140935438
C        -3.9786659278        1.7681040856        0.1806286255
C        -5.3801069542        1.7391023231        0.4403758484
C        -6.0503202032        0.5577912033        0.4788509961
C        -3.9892183585       -0.6417450382       -0.1334992837
C        -5.3729624488       -0.6532454959        0.1515971693
C        -6.1146938869       -1.8585450659        0.0666787574
C        -5.5167153637       -3.0160558200       -0.3574106526
C        -4.1597070027       -2.9981932821       -0.7330912153
C        -3.4226749130       -1.8465597581       -0.6256411063
H         7.5147218770       -1.8012116845        0.2177134925
H         8.5868225838        0.3932024167       -0.2399761779
H         7.1874374251        2.4186184129       -0.5756314381
H         4.6996870466        2.2552602520       -0.4541675989
H         3.0584372585       -3.3671042231        0.6771586756
H         5.5250222600       -3.1548823997        0.5493627559
H         2.8948194113        2.1087985144       -0.3504834649
H         0.8477224143       -2.3654578774        0.5561898746
H         0.6308362317        3.1147322517       -0.3508665114
H        -1.3635869033       -1.3900897510        0.4189062308
H        -1.5383812654        4.1347526131       -0.2835283005
H        -3.9780453764        3.9503280643        0.1428811140
H        -5.9011659074        2.6857720443        0.6256193723
H        -7.1179962843        0.5199089883        0.7233710417
H        -7.1773652660       -1.8459034588        0.3354283165
H        -6.0843785181       -3.9496385076       -0.4235437026
H        -3.6990061008       -3.9133890513       -1.1196243985
H        -2.3721770331       -1.8583152994       -0.9466885577
