 48

C        -6.8162489696        1.7620171189        0.2231499005
C        -7.4976862305        0.5553825038       -0.0350138186
C        -6.7941084966       -0.6061646575       -0.2300367481
C        -5.4460131221        1.7843139660        0.2809079651
C        -4.6942025017        0.5995932029        0.0826824472
C        -5.3785431233       -0.6035781932       -0.1741323851
C        -4.6383941736       -1.8083122261       -0.3745151303
C        -3.2796779597       -1.8002307415       -0.3203860769
C        -3.2568611527        0.5960922944        0.1368107012
C        -2.5607237774       -0.5936950943       -0.0650748274
C        -1.1776716571        1.8190788619        0.4435866682
C        -2.5310856848        1.8067335465        0.3981615372
C        -0.4254150629        0.6143244539        0.2271059157
C        -1.1153115616       -0.5974001357       -0.0141700219
C        -0.3700847700       -1.7674476178       -0.1689687218
C         0.9718508127        0.6314124055        0.2488912107
C         1.7302388428       -0.5212461278        0.0279004666
C         1.0244518017       -1.7485238061       -0.1176432314
C         1.7433053696       -2.9916535962       -0.1423324330
C         3.0807823223       -3.0044428226        0.0502020414
C         3.1855589862       -0.5392631102        0.0207032597
C         3.8181510309       -1.7771365192        0.1596304213
C         5.2220278107       -1.8661218877        0.4021113537
C         5.9856628881       -0.7449879269        0.4533404372
C         4.0239826333        0.6305470992       -0.1184101059
C         5.4059176294        0.5242463942        0.1535842977
C         6.2428440835        1.6649908624        0.0801706799
C         5.7386444841        2.8742600415       -0.3236827007
C         4.3835705644        2.9722225612       -0.6901747998
C         3.5547027071        1.8829910696       -0.5903885868
H        -7.3920922608        2.6804428617        0.3769659175
H        -8.5917031533        0.5562017458       -0.0776688768
H        -7.3159458020       -1.5487220720       -0.4309261774
H        -4.9023236735        2.7199387678        0.4819837728
H        -5.1878662672       -2.7358804628       -0.5716335136
H        -2.6973090700       -2.7225045242       -0.4702610075
H        -0.6295797691        2.7468800121        0.6442541101
H        -3.1155960298        2.7256675447        0.5595526956
H        -0.9046852100       -2.7200442724       -0.3168754973
H         1.4709778549        1.5890686264        0.4576795842
H         1.1788894259       -3.9208493339       -0.2809832047
H         3.6344132101       -3.9494666005        0.1003376761
H         5.6656978753       -2.8556115519        0.5636028628
H         7.0551829575       -0.7973313701        0.6869274766
H         7.3030601397        1.5621250426        0.3390570928
H         6.3813519195        3.7584872455       -0.3809764602
H         3.9967120849        3.9266345838       -1.0625625816
H         2.5069319797        1.9854618327       -0.9043534475
