 48

C         4.1830000496       -4.2112684048        0.0000000000
C         5.3222899588       -3.3676303415        0.0000000000
C         5.1789301880       -2.0088953191        0.0000000000
C         2.9252150001       -3.6777424052        0.0000000000
C         2.7457101048       -2.2647291709        0.0000000000
C         3.8797625463       -1.4248989268        0.0000000000
C         3.6998008819       -0.0248591770        0.0000000000
C         1.4593466286       -1.6838048676        0.0000000000
C         1.2907868769       -0.3117732599        0.0000000000
C         2.4369693067        0.5370983531        0.0000000000
C         0.9742584617        2.5470478448        0.0000000000
C         2.2625782066        1.9867656079        0.0000000000
C         3.3783340345        2.8387452481        0.0000000000
C         3.2249282387        4.2136959103        0.0000000000
C         1.9455906547        4.7698089158        0.0000000000
C         0.8356632147        3.9439620247        0.0000000000
C        -0.0458644984        0.2761327539        0.0000000000
C        -0.2030611697        1.6844724955        0.0000000000
C        -1.4829269980        2.2264948193        0.0000000000
C        -1.1748103673       -0.5338449433        0.0000000000
C        -2.4681310499        0.0078629155        0.0000000000
C        -2.6220256871        1.4080411925        0.0000000000
C        -3.9414766344        1.9809061204        0.0000000000
C        -5.0399632165        1.1907062910        0.0000000000
C        -3.6443487736       -0.8362587203        0.0000000000
C        -4.9186978994       -0.2425350384        0.0000000000
C        -6.0675139156       -1.0607676536        0.0000000000
C        -5.9439699756       -2.4326467362        0.0000000000
C        -4.6723649097       -3.0274559505        0.0000000000
C        -3.5410188547       -2.2426155172        0.0000000000
H         4.3277588516       -5.2965957848        0.0000000000
H         6.3181720015       -3.8227305421        0.0000000000
H         6.0542382942       -1.3496813803        0.0000000000
H         2.0393835922       -4.3226841899        0.0000000000
H         4.5870913088        0.6286206683        0.0000000000
H         0.5747561791       -2.3411442210        0.0000000000
H         4.3859588632        2.3955016244        0.0000000000
H         4.1050675262        4.8647859974        0.0000000000
H         1.8212373165        5.8575143506        0.0000000000
H        -0.1758683736        4.3781516057        0.0000000000
H        -1.6048107731        3.3217964556        0.0000000000
H        -1.0638218513       -1.6353675243        0.0000000000
H        -4.0309453603        3.0733148554        0.0000000000
H        -6.0469995847        1.6236069090        0.0000000000
H        -7.0582872987       -0.5922400394        0.0000000000
H        -6.8361306631       -3.0673612890        0.0000000000
H        -4.5865908044       -4.1189278155        0.0000000000
H        -2.5362378822       -2.6925026497        0.0000000000
