 48

C         1.7609664159        1.6027666496        1.1244118136
C         2.7132780468        0.8519419063        0.3889870253
C         3.9457302101        1.4797642698        0.1036280420
C         4.1504665620        2.8425747027        0.4318288425
C         3.1818954798        3.5529980047        1.0929711593
C         1.9853511822        2.9130453548        1.4656771502
C         2.5149719512       -0.5249964423       -0.0045623427
C         3.6370084844       -1.2517926959       -0.4110473057
C         4.8825555404       -0.6031349086       -0.6675927565
C         5.0187094437        0.7328271261       -0.4691519381
C         1.2313463014       -1.2106296168       -0.0090538935
C         1.2117796327       -2.6271386396       -0.1119153967
C         2.4251388001       -3.3494414811       -0.3690040315
C         3.5802695379       -2.6774742012       -0.5722192511
C         0.0007081148       -0.5466252567       -0.0004411024
C        -1.2284461346       -1.2134074030        0.0075282691
C        -1.2056027691       -2.6299866284        0.1088083077
C         0.0038519405       -3.3163884014       -0.0020573072
C        -2.5136649197       -0.5307376712        0.0040747812
C        -3.6338670858       -1.2605759870        0.4102224325
C        -3.5737958901       -2.6862891499        0.5699359602
C        -2.4172293372       -3.3553638085        0.3654281193
C        -2.7153424850        0.8460773577       -0.3881877852
C        -3.9493509417        1.4706424894       -0.1023346007
C        -5.0203555741        0.7206626484        0.4700774145
C        -4.8808490330       -0.6150976863        0.6676315353
C        -4.1574650856        2.8332507912       -0.4294024727
C        -3.1905002695        3.5467796230       -1.0894587577
C        -1.9921840653        2.9101795175       -1.4623785803
C        -1.7647653442        1.6000391691       -1.1227016894
H         5.1005391700        3.3166253443        0.1593530768
H         0.8256695339        1.1244805249        1.4464995332
H         1.2343643229        3.4695258827        2.0364578177
H         3.3364994531        4.6058389182        1.3495886187
H         5.9556891914        1.2490836148       -0.7072819541
H         5.7190718010       -1.2030256329       -1.0449108027
H         4.5028958645       -3.2080976226       -0.8352570490
H         2.3814859313       -4.4426150073       -0.4328415185
H         0.0051591875       -4.4139349813       -0.0029090110
H        -0.0005176159        0.5558035131        0.0001357238
H        -2.3709710221       -4.4485182498        0.4277987969
H        -4.4951119804       -3.2191880412        0.8329467217
H        -5.7158759461       -1.2170865167        1.0449177176
H        -5.9586946578        1.2341619618        0.7088188448
H        -5.1091069619        3.3040783545       -0.1567903350
H        -3.3474452913        4.5994290221       -1.3454259219
H        -1.2424055218        3.4694642245       -2.0320129089
H        -0.8284932536        1.1241700756       -1.4455348435
