 46

C         3.1102446713        1.9641677731       -0.6218727192
C         3.3702436431        0.6685996654       -0.1137188731
C         4.7165744871        0.3455198139        0.1611265061
C         5.7270793429        1.3291717104        0.0590422126
C         5.4258299417        2.5958252582       -0.3776457797
C         4.1062026746        2.9031973941       -0.7479645176
C         5.0852735482       -0.9988976084        0.4861744305
C         4.1551556620       -1.9819108688        0.4489930651
C         2.7765577916       -1.6752734740        0.2038825013
C         2.3479729293       -0.3464781598        0.0557149968
C         1.8623536363       -2.7580953389        0.1224068958
C         0.5211733731       -2.5282977909       -0.0460550404
C         0.0310944007       -1.1843277364       -0.0174407627
C         0.9276734182       -0.0950702433        0.0833937319
C        -1.3739665096       -0.9674036185       -0.0543400993
C        -2.2873990663       -2.0677832467       -0.2121763615
C        -1.7393101540       -3.4065931112       -0.3019448196
C        -0.4142076577       -3.6229182673       -0.2128317167
C        -1.8835970989        0.3303545592        0.0733860290
C        -3.2910537015        0.5588591154        0.0340084499
C        -4.1730085897       -0.5278556805       -0.1492341241
C        -3.6392554661       -1.8464216175       -0.2680229902
C        -3.8027822543        1.8740129469        0.1833255523
C        -5.1748022460        2.0821248510        0.1301094598
C        -6.0444867227        1.0027517701       -0.0646105295
C        -5.5597129638       -0.2826668433       -0.1999157015
C        -0.9862225622        1.4206945626        0.2662483885
C         0.3739416084        1.1962976621        0.2780718698
C        -2.8725004997        2.9607628497        0.3957316114
C        -1.5411248543        2.7459927355        0.4413988932
H        -5.5807733381        3.0937497584        0.2424221336
H        -7.1233990854        1.1865422264       -0.1062397310
H        -6.2478062456       -1.1227928485       -0.3467638101
H        -4.3358267842       -2.6837351474       -0.3991839608
H        -2.4418656985       -4.2371298361       -0.4368221961
H        -0.0016712013       -4.6371808386       -0.2670399987
H         2.2475324213       -3.7842473005        0.1778282763
H         1.0431400397        2.0499536592        0.4589081038
H        -0.8420204063        3.5736247795        0.6087924048
H        -3.2867544713        3.9677434116        0.5219093603
H         4.4334885832       -3.0272054328        0.6277478811
H         6.1328789913       -1.2160921626        0.7239922231
H         6.7576413726        1.0615970503        0.3198734989
H         6.2050354775        3.3604178916       -0.4579841760
H         3.8769292705        3.8980163325       -1.1442305704
H         2.0932561253        2.2276319690       -0.9428127503
