 46

C         5.8890372977       -1.2312336546        0.0000000000
C         6.4523291929        0.0501464960        0.0000000000
C         5.6529617374        1.1754703956        0.0000000000
C         4.2492009093        1.0506050103        0.0000000000
C         3.3969124751        2.1960383110        0.0000000000
C         2.0328868825        2.0582006540        0.0000000000
C         1.1521584628        3.2101606249        0.0000000000
C        -0.1869264318        3.0699351808        0.0000000000
C        -0.8124944773        1.7619433364        0.0000000000
C        -2.1784276029        1.6200681051        0.0000000000
C         1.4368775317        0.7499199130        0.0000000000
C         0.0239853491        0.6009372240        0.0000000000
C        -0.5500144578       -0.6854117697        0.0000000000
C         0.2983442324       -1.8211729503        0.0000000000
C         3.6759694165       -0.2399051008        0.0000000000
C         2.2568016324       -0.3858392226        0.0000000000
C         1.6703158219       -1.6879813625        0.0000000000
C         2.5488204571       -2.8378042603        0.0000000000
C         3.8906507044       -2.6960684002        0.0000000000
C         4.5093124081       -1.3887322469        0.0000000000
C        -1.9797575748       -0.8137569257        0.0000000000
C        -2.7818791963        0.3343615899        0.0000000000
C        -3.9486040081       -2.2385423310        0.0000000000
C        -2.5983689931       -2.1048078460        0.0000000000
C        -4.7947409975       -1.0839623512        0.0000000000
C        -4.2197604303        0.1997303387        0.0000000000
C        -5.0720755087        1.3285542383        0.0000000000
C        -6.4374743905        1.1767884198        0.0000000000
C        -7.0083248297       -0.1093252458        0.0000000000
C        -6.2021677997       -1.2219396290        0.0000000000
H         6.5410529039       -2.1119847647        0.0000000000
H         7.5425298324        0.1551558344        0.0000000000
H         6.1024572806        2.1749070355        0.0000000000
H         3.8568661397        3.1919339714        0.0000000000
H         1.6162470701        4.2033232619        0.0000000000
H        -0.8460371343        3.9459320770        0.0000000000
H        -2.8359410338        2.5043540786        0.0000000000
H        -0.1657625750       -2.8203960895        0.0000000000
H         2.0863168352       -3.8315896023        0.0000000000
H         4.5507823131       -3.5711631229        0.0000000000
H        -4.4164643160       -3.2297015535        0.0000000000
H        -1.9410148077       -2.9878689376        0.0000000000
H        -4.6154411528        2.3299895306        0.0000000000
H        -7.0911153921        2.0551615644        0.0000000000
H        -8.0981626721       -0.2140375128        0.0000000000
H        -6.6388286130       -2.2271450304        0.0000000000
