 48

C        -3.0286039386       -5.3567631973        0.0000000000
C        -1.7234177542       -5.9073798182        0.0000000000
C        -0.6263847821       -5.0915221937        0.0000000000
C        -3.2097786804       -4.0016670532        0.0000000000
C        -2.0852815951       -3.1294016103        0.0000000000
C        -0.7863190852       -3.6773943607        0.0000000000
C         0.3272427643       -2.8067896578        0.0000000000
C        -2.2387777635       -1.7242619706        0.0000000000
C        -1.1458504129       -0.8804148079        0.0000000000
C         0.1689792051       -1.4351058153        0.0000000000
C        -1.3273407476        0.5712119103        0.0000000000
C        -0.1895437960        1.4325438820        0.0000000000
C        -0.3738654058        2.8009712689        0.0000000000
C        -2.5943854459        1.1200022683        0.0000000000
C        -2.7915640265        2.5196859727        0.0000000000
C        -1.6675004793        3.3706175489        0.0000000000
C        -1.8606455891        4.7805975634        0.0000000000
C        -3.1247802223        5.3012532596        0.0000000000
C        -4.2542330928        4.4462447519        0.0000000000
C        -4.0962050590        3.0882502216        0.0000000000
C         1.1583440366        0.8638978012        0.0000000000
C         1.3353811391       -0.5521238313        0.0000000000
C         2.6126349975       -1.0767158010        0.0000000000
C         2.2671350512        1.6867951670        0.0000000000
C         3.5778817966        1.1577124960        0.0000000000
C         3.7527798414       -0.2412225082        0.0000000000
C         5.0704317149       -0.7789430342        0.0000000000
C         6.1534002117        0.0555004305        0.0000000000
C         5.9776662953        1.4611398920        0.0000000000
C         4.7225950230        2.0032805771        0.0000000000
H        -3.8893159044       -6.0335623638        0.0000000000
H        -1.6075435946       -6.9961659408        0.0000000000
H         0.3866111769       -5.5092486601        0.0000000000
H        -4.2158816215       -3.5676002513        0.0000000000
H         1.3402038852       -3.2406571653        0.0000000000
H        -3.2564103878       -1.3014684878        0.0000000000
H         0.5010947706        3.4708783921        0.0000000000
H        -3.4766063423        0.4596864133        0.0000000000
H        -0.9816773676        5.4348688346        0.0000000000
H        -3.2805471882        6.3850519903        0.0000000000
H        -5.2550737936        4.8903179263        0.0000000000
H        -4.9644709536        2.4198401047        0.0000000000
H         2.7553008611       -2.1694090236        0.0000000000
H         2.1364098991        2.7809811051        0.0000000000
H         5.1975618242       -1.8672879124        0.0000000000
H         7.1698805173       -0.3515015697        0.0000000000
H         6.8626643204        2.1058582347        0.0000000000
H         4.5778689564        3.0894260961        0.0000000000
