 48

C        -3.4698525208        3.7148501631       -0.4302189394
C        -4.0653658298        2.4797965857       -0.2579758837
C        -1.3012795578        2.6755346346       -0.3851339430
C        -2.0782476776        3.8132222105       -0.4939791782
C        -1.8899150450        1.4111421745       -0.2120718457
C        -3.2903501799        1.3129401283       -0.1466754394
C        -3.1394008560       -1.1453037387        0.1331877988
C        -3.9256969699        0.0144084572        0.0353007902
C        -5.3240909468       -0.0989397085        0.1143967795
C        -5.9280035368       -1.3301066447        0.2863204395
C        -5.1455246024       -2.4831827205        0.3823764248
C        -3.7688803872       -2.3895818734        0.3059111313
C        -1.0662942916        0.2129994906       -0.0977234852
C        -1.6879417812       -1.0513902383        0.0557950956
C        -0.8908021996       -2.1855191792        0.1048791026
C         0.3200269797        0.2909503448       -0.1371402512
C         1.1478491939       -0.8389729005       -0.0183333058
C         0.5090132848       -2.1009662648        0.0361997978
C         1.2814195564       -3.3046431298       -0.0416691641
C         2.6184821057       -3.2366750455       -0.2424724417
C         2.5982390750       -0.7794871615       -0.0294966946
C         3.2911995170       -1.9717236237       -0.2637788546
C         4.6954603460       -1.9702446252       -0.5272300743
C         5.3998901528       -0.8111417613       -0.5070466638
C         3.3800067419        0.4197611001        0.1837633260
C         4.7608605786        0.4034934447       -0.1115790671
C         5.5413362738        1.5761178297        0.0340203010
C         4.9842283018        2.7270685532        0.5299561074
C         3.6322008963        2.7301148263        0.9176116375
C         2.8570196756        1.6093180264        0.7507128280
H        -4.0858652352        4.6157513332       -0.5164826702
H        -5.1616669030        2.3953780640       -0.2056224486
H        -0.2039185827        2.7500918237       -0.4332670310
H        -1.6054277467        4.7911920257       -0.6303868331
H        -5.9356209003        0.8129856994        0.0365150835
H        -7.0186243738       -1.4039920099        0.3468573169
H        -5.6241880027       -3.4584083868        0.5177503373
H        -3.1441197434       -3.2930904419        0.3780592312
H        -1.3702249648       -3.1748468918        0.1867254592
H         0.7744462202        1.2865438045       -0.2841465172
H         0.7642997686       -4.2684941465        0.0263841376
H         3.2155413673       -4.1473485917       -0.3700118235
H         5.1858254777       -2.9218217044       -0.7640074305
H         6.4674862003       -0.7915330415       -0.7541538578
H         6.6015615017        1.5453068048       -0.2428758088
H         5.5833564730        3.6361060537        0.6435350040
H         3.2035950910        3.6344908780        1.3622672733
H         1.8107561027        1.6370912020        1.0849944413
