 48

C         6.6691309434       -2.6863405142        0.0000000000
C         6.8871222149       -1.3227925724        0.0000000000
C         4.2868615187       -2.3243989868        0.0000000000
C         5.3626735136       -3.1893260063        0.0000000000
C         4.4877758320       -0.9324151593        0.0000000000
C         5.8001802245       -0.4303846234        0.0000000000
C         6.0244964582        0.9957162751        0.0000000000
C         4.9909129405        1.8620018670        0.0000000000
C         3.3639518419       -0.0086882757        0.0000000000
C         3.6231702891        1.3952773129        0.0000000000
C         2.5713263410        2.2936317115        0.0000000000
C         2.0568438456       -0.4608639583        0.0000000000
C         0.9754693161        0.4455247353        0.0000000000
C         1.2351264247        1.8381914203        0.0000000000
C         0.1454685786        2.7456226411        0.0000000000
C        -0.3669133918       -0.0091991033        0.0000000000
C        -1.4190670301        0.8804394059        0.0000000000
C        -1.1535816701        2.2867481902        0.0000000000
C        -2.2635970287        3.2181362513        0.0000000000
C        -3.5386437992        2.7892437964        0.0000000000
C        -2.8037777230        0.4180245369        0.0000000000
C        -3.8595154322        1.3763728493        0.0000000000
C        -5.1764872829        0.9567617996        0.0000000000
C        -3.1090156379       -0.9302232171        0.0000000000
C        -4.4495187698       -1.3711244402        0.0000000000
C        -5.4932771201       -0.4189717194        0.0000000000
C        -6.8452945943       -0.8694329055        0.0000000000
C        -7.1263686904       -2.2059699938        0.0000000000
C        -6.0786099270       -3.1615389238        0.0000000000
C        -4.7735562597       -2.7587913606        0.0000000000
H         7.5166395656       -3.3795025231        0.0000000000
H         7.9086511832       -0.9257383063        0.0000000000
H         3.2541807330       -2.7058216671        0.0000000000
H         5.1979093582       -4.2716897156        0.0000000000
H         7.0613093561        1.3515416375        0.0000000000
H         5.1613846216        2.9449309607        0.0000000000
H         2.7676565751        3.3730570788        0.0000000000
H         1.8618930064       -1.5454890239        0.0000000000
H         0.3531404828        3.8229597284        0.0000000000
H        -0.5724164429       -1.0919182564        0.0000000000
H        -2.0278165144        4.2888706670        0.0000000000
H        -4.3737076277        3.4996723427        0.0000000000
H        -5.9909233422        1.6918706633        0.0000000000
H        -2.2915428559       -1.6692830898        0.0000000000
H        -7.6489933994       -0.1245050571        0.0000000000
H        -8.1633205156       -2.5575531603        0.0000000000
H        -6.3333999415       -4.2264121419        0.0000000000
H        -3.9579057759       -3.4905160410        0.0000000000
