 48

C        -6.7314179517        2.3315653192       -0.2673564845
C        -7.4606973724        1.1350023174       -0.0256216981
C        -6.8095860828       -0.0492674524        0.1480652684
C        -5.3703493247        2.3121854597       -0.3287896686
C        -4.6557887772        1.0870515751       -0.1507811213
C        -5.3824521366       -0.1052855476        0.0896558432
C        -4.6898951493       -1.3136268162        0.2644209347
C        -3.2544351800        1.0441822138       -0.2095239837
C        -2.5685086074       -0.1521161792       -0.0341603090
C        -3.3017479990       -1.3475460706        0.2046747431
C        -2.5852282352       -2.5838556083        0.3807448013
C        -1.2354519483       -2.6202830905        0.3251361922
C        -1.1202496624       -0.2146814622       -0.0861304515
C        -0.4594745690       -1.4288094504        0.0954405317
C         1.0088796835        0.9121617596       -0.3394739843
C        -0.3544554113        0.9521893309       -0.3399406688
C         1.7242989518       -0.2929347346       -0.0902705155
C         0.9731395660       -1.4771221769        0.0467333537
C         1.6456512815       -2.7346819672        0.0853317278
C         2.9918586549       -2.8017756490       -0.0782730657
C         3.1681126714       -0.3510299790       -0.0574881564
C         3.7694331503       -1.6108184178       -0.1741431997
C         5.1768889416       -1.7422785923       -0.3968642297
C         5.9713432527       -0.6460649037       -0.4488737222
C         4.0441430010        0.7953785915        0.0883150938
C         5.4245764927        0.6450756705       -0.1656219259
C         6.2955564241        1.7569241069       -0.0837429048
C         5.8248342493        2.9837372598        0.3130817170
C         4.4711510979        3.1245474948        0.6629007728
C         3.6091094264        2.0600618934        0.5541120319
H        -7.2840336198        3.2670207583       -0.4029341032
H        -8.5536432318        1.1839262803        0.0180813459
H        -7.3632146379       -0.9763522751        0.3348240331
H        -4.8000855024        3.2292667072       -0.5146483240
H        -5.2533958727       -2.2365897577        0.4492507117
H        -2.6842143845        1.9678812265       -0.3988419601
H        -3.1664962618       -3.4957583151        0.5602673798
H        -0.6936075677       -3.5690668601        0.4560514282
H         1.5661861602        1.8332282084       -0.5581697625
H        -0.8921382809        1.8923936124       -0.5389176170
H         1.0470494271       -3.6489358272        0.2132869640
H         3.5038437151       -3.7703707248       -0.1195170772
H         5.5915765194       -2.7464251680       -0.5438780802
H         7.0420119584       -0.7299059282       -0.6675309013
H         7.3554541476        1.6204869077       -0.3280161957
H         6.4951977011        3.8467080381        0.3770731546
H         4.1085647457        4.0906810517        1.0294285650
H         2.5611932860        2.1962498531        0.8537890159
