 46

C         0.6993865153       -2.6724182547        0.0000000000
C        -0.6770774390       -2.6781496767        0.0000000000
C         1.4154163640       -1.4626722495        0.0000000000
C         2.8365625040        1.0155817789        0.0000000000
C         3.5161827400        2.2396164503        0.0000000000
C         2.8173145260        3.4361744108        0.0000000000
C         1.4283780226        3.4312674608        0.0000000000
C         0.7100760037       -0.2483178474        0.0000000000
C         1.4257768968        1.0051733439        0.0000000000
C         0.7192690618        2.2277446125        0.0000000000
C        -0.7377912799        2.2216746286        0.0000000000
C        -1.4568994887        3.4192416073        0.0000000000
C        -2.8458260031        3.4125809002        0.0000000000
C        -3.5347017242        2.2102528035        0.0000000000
C        -0.7079746476       -0.2542260929        0.0000000000
C        -1.4340909682        0.9932605153        0.0000000000
C        -2.8449116436        0.9919254706        0.0000000000
C        -1.4031726980       -1.4744190087        0.0000000000
C        -2.8566628124       -1.4837752895        0.0000000000
C        -3.5657462146       -0.2713238889        0.0000000000
C        -4.9725478077       -0.2994063640        0.0000000000
C        -5.6573808807       -1.4977852201        0.0000000000
C        -4.9513494782       -2.7051906498        0.0000000000
C        -3.5712005994       -2.6961660667        0.0000000000
C         3.5678781064       -0.2416249729        0.0000000000
C         2.8689306512       -1.4599190255        0.0000000000
C         3.5935291977       -2.6663024839        0.0000000000
C         4.9736707836       -2.6638352357        0.0000000000
C         5.6696154201       -1.4506077990        0.0000000000
C         4.9748467817       -0.2579975902        0.0000000000
H         1.2588578373       -3.6205041790        0.0000000000
H        -1.2286402945       -3.6308605294        0.0000000000
H         4.6169047223        2.2395639397        0.0000000000
H         3.3597384974        4.3873178657        0.0000000000
H         0.8725175196        4.3813385564        0.0000000000
H        -0.9089511867        4.3738983886        0.0000000000
H        -3.3961598900        4.3591688181        0.0000000000
H        -4.6353829145        2.2010092537        0.0000000000
H        -5.5207874287        0.6551297064        0.0000000000
H        -6.7521380590       -1.5067810968        0.0000000000
H        -5.4961210830       -3.6548268534        0.0000000000
H        -3.0084889201       -3.6421895927        0.0000000000
H         3.0387272103       -3.6169841872        0.0000000000
H         5.5263437658       -3.6088895048        0.0000000000
H         6.7644050228       -1.4505139424        0.0000000000
H         5.5151299288        0.7010618631        0.0000000000
