 48

C         0.7240929496        3.8986278030       -1.2301829431
C        -0.2243366956        3.4818961943       -2.1322077820
C        -0.3933666153        2.1093115037       -2.3841108561
C         0.3508413153        1.1787036519       -1.6988636862
C         1.5208638525        2.9546527463       -0.5425644442
C         1.3016453788        1.5744496681       -0.7282301619
C         3.4734481496        2.5109812626        0.8059043863
C         2.5920659724        3.4046886845        0.2944644907
C         3.2866619276        1.1055361863        0.6040940142
C         2.1209218608        0.6221009501       -0.0072994599
C         4.2191572987       -1.1153726268        0.6935539773
C         4.3236967779        0.2095190975        0.9905821170
C         2.9972321829       -1.6360817984        0.1810058839
C         1.8787237616       -0.7988155967        0.0257975012
C         1.7512953897       -3.5340570556       -0.6411026278
C         2.9205831729       -3.0145298419       -0.1851307544
C         0.5513479617       -2.7630524954       -0.5600005268
C         0.5867959334       -1.4404660045       -0.0890277762
C        -1.8622523295       -2.7252081068       -0.6585042142
C        -0.6894563398       -3.3727841269       -0.8990414420
C        -1.8679849526       -1.4782132626        0.0282412341
C        -0.6539104591       -0.8565923434        0.3512924301
C        -0.6816739879        0.2937238882        1.2061866335
C        -1.8512309529        0.8357940568        1.6306603479
C        -3.1179267561       -0.8807087712        0.4311948591
C        -3.1047957492        0.2790210576        1.2255003413
C        -4.3254332658        0.8724992036        1.6232656115
C        -5.5223141734        0.3206747076        1.2360692074
C        -5.5408957249       -0.8428963663        0.4441355954
C        -4.3643703284       -1.4331405168        0.0520460277
H         0.8842785242        4.9666482480       -1.0435333190
H        -0.8414468526        4.2104070822       -2.6677620525
H        -1.1245666803        1.7854213457       -3.1321333867
H         0.2118919682        0.1100784577       -1.9072232645
H         4.3414149982        2.8426054619        1.3873915916
H         2.7058454221        4.4802450875        0.4709745500
H         5.0529292882       -1.8031409407        0.8746661853
H         5.2225425159        0.6124971948        1.4708746916
H         1.6945819477       -4.5620593651       -1.0164849277
H         3.8287271654       -3.6253364558       -0.1282855241
H        -2.8282435122       -3.1689036844       -0.9440031332
H        -0.6802965553       -4.3693652766       -1.3551653684
H         0.2731286946        0.7288947635        1.5289186577
H        -1.8565060775        1.7095397383        2.2924911799
H        -4.3004313995        1.7765375045        2.2422054613
H        -6.4692496542        0.7788160234        1.5393992626
H        -6.5021923848       -1.2725985142        0.1442376429
H        -4.3682992150       -2.3457642934       -0.5629937713
