 48

C        -6.4128409664        2.3958925603        0.3357190424
C        -6.5864092406        1.0433587336        0.1143544210
C        -4.0213207033        2.1030144696        0.3592709959
C        -5.1244880126        2.9278312015        0.4587968452
C        -4.1770470439        0.7241347174        0.1341404052
C        -5.4720306387        0.1927706860        0.0112516121
C        -5.6507001617       -1.2219702579       -0.2196039943
C        -4.5914862826       -2.0496374154       -0.3189181257
C        -3.0230325351       -0.1569796048        0.0271652667
C        -3.2383313081       -1.5536967502       -0.1988307393
C        -2.1623599033       -2.4117173304       -0.2972705629
C        -1.7350444030        0.3252106410        0.1369630493
C        -0.6200420784       -0.5405932011        0.0276294617
C        -0.8381576827       -1.9246201953       -0.1805496613
C         0.2770156557       -2.7847848081       -0.2345772716
C         0.6997985812       -0.0481598776        0.1134457672
C         1.8023368704       -0.8774705330       -0.0143105994
C         1.5639571270       -2.2868745136       -0.1244238290
C         2.6702094984       -3.2062234194       -0.0414136111
C         3.9133513542       -2.7520163102        0.2163536065
C         3.1809756026       -0.3999341930        0.0407812000
C         4.1832646638       -1.3393659104        0.2856157349
C         5.5157484194       -0.9350779856        0.5912573171
C         5.8527292165        0.3811974986        0.5991418823
C         3.5800728565        0.9765526886       -0.1373703901
C         4.8986689266        1.3602677211        0.1945272305
C         5.3036861891        2.7142614585        0.0811762209
C         4.4447924160        3.6589397051       -0.4159268687
C         3.1579820468        3.2727456237       -0.8377732275
C         2.7420756888        1.9728066545       -0.7030802694
H        -7.2822549251        3.0565118166        0.4158153159
H        -7.5942811712        0.6237995800        0.0176719290
H        -3.0021668442        2.5082735544        0.4544606644
H        -4.9943397486        4.0005930962        0.6345398368
H        -6.6754406430       -1.6003332729       -0.3110313975
H        -4.7276719868       -3.1232769605       -0.4936864534
H        -2.3213135005       -3.4840232372       -0.4658767900
H        -1.5745188351        1.4017473638        0.3103975242
H         0.1125346494       -3.8643599009       -0.3426789065
H         0.8287045743        1.0296236170        0.2902143834
H         2.4666436085       -4.2774041633       -0.1533907985
H         4.7524326267       -3.4454181350        0.3477185830
H         6.2567220600       -1.7052014105        0.8359643238
H         6.8615893057        0.7060253041        0.8781546157
H         6.3196797639        2.9898845360        0.3868646555
H         4.7519302310        4.7058246519       -0.5047558997
H         2.4932454759        4.0210027090       -1.2821546712
H         1.7404421243        1.6973781400       -1.0603879054
