 46

C         0.7583901236        1.6007180141        0.0000000000
C         0.7557342686       -1.2250530009        0.0000000000
C        -0.4623029688       -3.3266386445        0.0000000000
C         0.7214665523       -2.6475833810        0.0000000000
C        -1.6961236446       -2.6201220128        0.0000000000
C        -4.1200418615       -2.6295472302        0.0000000000
C        -2.9407542915       -3.3144295981        0.0000000000
C        -4.1318468120       -1.2051374442        0.0000000000
C        -5.3760270978        0.8760824441        0.0000000000
C        -5.3669437083       -0.4824295546        0.0000000000
C        -4.1511493090        1.6189122806        0.0000000000
C        -1.7447675410        3.0413812741        0.0000000000
C        -2.9686986845        3.7251497192        0.0000000000
C        -4.1568792936        3.0303006688        0.0000000000
C        -0.4440042611       -0.5103654550        0.0000000000
C        -0.4320701631        0.9339322868        0.0000000000
C        -1.7039726336        1.6557458403        0.0000000000
C        -2.9236013202        0.9290870761        0.0000000000
C        -2.9229781091       -0.5041613429        0.0000000000
C        -1.6839891850       -1.2165473089        0.0000000000
C         2.0109609406        0.9035527094        0.0000000000
C         2.0198139612       -0.5190705558        0.0000000000
C         3.2370855909       -1.1933417362        0.0000000000
C         3.2130013258        1.6071742558        0.0000000000
C         4.4381987289        0.9266857436        0.0000000000
C         4.4501213904       -0.4912001906        0.0000000000
C         5.7060657627       -1.1752607655        0.0000000000
C         6.8733902997       -0.4734445519        0.0000000000
C         6.8615691624        0.9492651972        0.0000000000
C         5.6828473665        1.6315648442        0.0000000000
H         0.7670267789        2.7031662067        0.0000000000
H        -0.4796275051       -4.4224313698        0.0000000000
H         1.6819215420       -3.1859869750        0.0000000000
H        -5.0775561897       -3.1629013393        0.0000000000
H        -2.9294432002       -4.4104201030        0.0000000000
H        -6.3206392893        1.4320434716        0.0000000000
H        -6.3037579573       -1.0513704274        0.0000000000
H        -0.7995601493        3.6059755396        0.0000000000
H        -2.9694588190        4.8201856492        0.0000000000
H        -5.1148190431        3.5624541817        0.0000000000
H         3.2403236841       -2.2952348328        0.0000000000
H         3.2047026261        2.7042132720        0.0000000000
H         5.7055318838       -2.2710873226        0.0000000000
H         7.8377877799       -0.9919011355        0.0000000000
H         7.8172359636        1.4836426733        0.0000000000
H         5.6640437836        2.7272550506        0.0000000000
