 48

C        -7.0513265001        0.0734332591        0.2022989241
C        -7.4238227383       -1.2386603213       -0.0013340725
C        -6.4491800167       -2.2217399587       -0.2233628017
C        -5.1132839977       -1.8817297912       -0.2391795974
C        -5.6903681605        0.4360992823        0.1890011233
C        -4.7116588438       -0.5476541972       -0.0332511192
C        -3.9921733179        2.1621217522        0.3905099003
C        -5.2950866139        1.8053960001        0.4011635345
C        -2.9562201055        1.1844666772        0.1668153485
C        -3.3102463070       -0.1713244059       -0.0462605276
C        -2.3044434364       -1.1103758494       -0.2647445596
C        -1.6144551491        1.5606097386        0.1588981021
C        -0.6002873666        0.6189363821       -0.0519961177
C        -0.9587377029       -0.7309265876       -0.2708898091
C         0.0785265255       -1.6911238385       -0.5142533863
C         1.3827655721       -1.3343715716       -0.4578125466
C         0.8010215836        0.9895087979       -0.0491594328
C         1.7994637755        0.0102285677       -0.1610275577
C         2.4660168362        2.7362455900       -0.0629546662
C         1.1594392604        2.3600320101        0.0314523852
C         3.4910480807        1.7567192416       -0.1323671069
C         3.1838252830        0.3877486442       -0.0629915803
C         5.8641538092        1.3171949735       -0.3266001742
C         4.8433019227        2.2048211249       -0.2914499698
C         5.6118044255       -0.0724235862       -0.0874666940
C         4.2927526700       -0.5353458898        0.1051123689
C         4.1368710393       -1.8740477081        0.5360426749
C         5.2128392886       -2.7204028704        0.6667548783
C         6.5111001335       -2.2706456530        0.3777258482
C         6.7071493258       -0.9596466788        0.0173010354
H        -7.8102535778        0.8447697770        0.3761153418
H        -8.4819955341       -1.5195637561        0.0092407324
H        -6.7550538177       -3.2606203808       -0.3840555610
H        -4.3357760489       -2.6416337207       -0.4123268870
H        -3.6903425012        3.2034527416        0.5518953041
H        -6.0831530056        2.5480581980        0.5712682060
H        -2.5853763685       -2.1627435708       -0.4326753018
H        -1.3396267268        2.6153096678        0.3204727658
H        -0.2129602761       -2.7196317264       -0.7570229179
H         2.1530154584       -2.0877580872       -0.6726305385
H         2.7426066716        3.7970411219       -0.0722780968
H         0.3602937362        3.1094292873        0.1370505700
H         6.8964392712        1.6436385103       -0.4969050666
H         5.0261552103        3.2798184832       -0.4049802904
H         3.1358557011       -2.2494274180        0.7880915193
H         5.0630737117       -3.7514625921        1.0039539230
H         7.3565797686       -2.9611796805        0.4585668654
H         7.7176425310       -0.5825605892       -0.1786436130
