 48

C         5.0358944372       -3.5945570024        0.0000000000
C         6.2440103077       -2.8488360276        0.0000000000
C         6.2159418025       -1.4847771102        0.0000000000
C         3.8291664685       -2.9579300477        0.0000000000
C         3.7663888622       -1.5324621101        0.0000000000
C         4.9699349045       -0.7893091017        0.0000000000
C         4.9155495200        0.6180443123        0.0000000000
C         2.5332442052       -0.8534045624        0.0000000000
C         2.4834012435        0.5310630842        0.0000000000
C         3.6969992329        1.2772276508        0.0000000000
C         3.6417039015        2.7219318597        0.0000000000
C         2.4632163018        3.3763449108        0.0000000000
C         1.2146359206        1.2444395516        0.0000000000
C         1.2101626415        2.6571137572        0.0000000000
C        -0.0037674592        3.3467196520        0.0000000000
C        -0.0007316544        0.5587062110        0.0000000000
C        -1.2175377432        1.2418150912        0.0000000000
C        -1.2161836461        2.6544670791        0.0000000000
C        -2.4708400206        3.3709223356        0.0000000000
C        -3.6478794984        2.7138709253        0.0000000000
C        -2.4846630428        0.5256287475        0.0000000000
C        -3.6999436796        1.2690409976        0.0000000000
C        -4.9169900449        0.6070698313        0.0000000000
C        -2.5312905334       -0.8589114658        0.0000000000
C        -3.7628733951       -1.5408141575        0.0000000000
C        -4.9681363155       -0.8004237678        0.0000000000
C        -6.2125420820       -1.4987634135        0.0000000000
C        -6.2374674185       -2.8628917859        0.0000000000
C        -5.0276392718       -3.6058294394        0.0000000000
C        -3.8223719110       -2.9664257199        0.0000000000
H         5.0901601410       -4.6881366982        0.0000000000
H         7.1972336263       -3.3875681742        0.0000000000
H         7.1436056613       -0.9014149803        0.0000000000
H         2.8918554590       -3.5254807450        0.0000000000
H         5.8515530363        1.1903812127        0.0000000000
H         1.5914139389       -1.4256978855        0.0000000000
H         4.5916863996        3.2690815103        0.0000000000
H         2.4243787264        4.4718684361        0.0000000000
H        -0.0049547177        4.4439678292        0.0000000000
H         0.0004146295       -0.5484324975        0.0000000000
H        -2.4344359082        4.4665305297        0.0000000000
H        -4.5990861552        3.2588934423        0.0000000000
H        -5.8543082577        1.1772536004        0.0000000000
H        -1.5881262181       -1.4290035508        0.0000000000
H        -7.1415542578       -0.9175494486        0.0000000000
H        -7.1894498925       -3.4038140571        0.0000000000
H        -5.0793846521       -4.6995314423        0.0000000000
H        -2.8837626006       -3.5318282379        0.0000000000
