 48

C         6.6973182996       -2.5790722723        0.0000000000
C         7.4227751077       -1.3497098367        0.0000000000
C         6.7670331908       -0.1602130961        0.0000000000
C         5.3390429737       -2.5801075900        0.0000000000
C         4.6078609718       -1.3446742306        0.0000000000
C         5.3320557705       -0.1173931370        0.0000000000
C         4.6441029850        1.0924441737        0.0000000000
C         3.2162008198       -1.3271869346        0.0000000000
C         2.5189456262       -0.1097355295        0.0000000000
C         3.2411919443        1.1146852488        0.0000000000
C         2.5217063647        2.3421636029        0.0000000000
C         1.0973447015       -0.0734442656        0.0000000000
C         0.4156680967        1.1200397410        0.0000000000
C         1.1473870708        2.3547484475        0.0000000000
C         0.4193935025        3.6074365269        0.0000000000
C        -0.9260555951        3.6369770188        0.0000000000
C        -1.0424947060        1.1635998383        0.0000000000
C        -1.7045809967        2.4162194169        0.0000000000
C        -3.0937575857        2.4652049900        0.0000000000
C        -1.7961733289       -0.0038333390        0.0000000000
C        -3.1972471374        0.0352013084        0.0000000000
C        -3.8516444005        1.2850458900        0.0000000000
C        -5.2897105820        1.3357869482        0.0000000000
C        -6.0246397738        0.2001140003        0.0000000000
C        -3.9865515845       -1.1790909195        0.0000000000
C        -5.3894476312       -1.0906288891        0.0000000000
C        -6.1613213260       -2.2707557932        0.0000000000
C        -5.5466676740       -3.5036274358        0.0000000000
C        -4.1460001712       -3.5943355387        0.0000000000
C        -3.3782504161       -2.4511231244        0.0000000000
H         7.2594235067       -3.5186739773        0.0000000000
H         8.5170235455       -1.3875413692        0.0000000000
H         7.3153164670        0.7886827732        0.0000000000
H         4.7735045138       -3.5188041313        0.0000000000
H         5.2002394945        2.0380343939        0.0000000000
H         2.6571765343       -2.2709673778        0.0000000000
H         3.0859743047        3.2831660271        0.0000000000
H         0.5333599010       -1.0204552269        0.0000000000
H         1.0045180600        4.5346259261        0.0000000000
H        -1.4709855516        4.5882440474        0.0000000000
H        -3.6066364066        3.4351930196        0.0000000000
H        -1.2845720928       -0.9856733000        0.0000000000
H        -5.7714470211        2.3203814424        0.0000000000
H        -7.1201675038        0.2362243198        0.0000000000
H        -7.2546817091       -2.1952711406        0.0000000000
H        -6.1464855763       -4.4195990076        0.0000000000
H        -3.6683958437       -4.5794999874        0.0000000000
H        -2.2786298075       -2.5043843749        0.0000000000
