 48

C         6.4665931113       -0.2551809373       -0.5879211444
C         6.7080162677        0.9729443979        0.0542185858
C         5.6622681322        1.6937213503        0.5795288073
C         5.1858670609       -0.7418107527       -0.6954302842
C         4.0916528449       -0.0165587441       -0.1691529645
C         4.3393793527        1.2077138534        0.4741021676
C         3.2405310073        1.9376321695        1.0280545094
C         1.9674525810        1.4961883722        0.8759036249
C         2.7355099235       -0.5037837279       -0.2731839003
C         1.6601076948        0.2834933232        0.1719649908
C         1.2321771711       -2.3278318906       -0.7458187089
C         2.4897519233       -1.8016866519       -0.7893262936
C         0.1361975258       -1.5426159079       -0.3064870818
C         0.3138674502       -0.1872689072       -0.0075225271
C        -1.1513373653       -2.1614360544       -0.0747685503
C        -2.2542570205       -1.3618604422        0.2762426335
C        -3.3849031467       -2.0043465239        0.8203101446
C        -3.4709024588       -3.3794363181        0.8787341745
C        -2.4240513474       -4.1703123956        0.3904329013
C        -1.2741766806       -3.5656818216       -0.0670535507
C        -2.1558758807        0.0783216545        0.0907376202
C        -0.8792511636        0.6485558221        0.0346785446
C        -0.7580860134        2.0629716657       -0.1078361955
C        -1.8449087776        2.8765931635       -0.1574617713
C        -3.3148467416        0.9194435601       -0.0953058223
C        -3.1526750005        2.3194627150       -0.1621702247
C        -4.2753122380        3.1762041181       -0.2936844040
C        -5.5352302224        2.6549085838       -0.4198410643
C        -5.7064530203        1.2566643710       -0.4401462870
C        -4.6315312411        0.4200229910       -0.2859210884
H         7.3084576484       -0.8201656310       -1.0012793772
H         7.7340758151        1.3468814314        0.1318236584
H         5.8402917027        2.6501818877        1.0839425622
H         4.9886264568       -1.7035277261       -1.1928729168
H         3.4524034355        2.8594755808        1.5821052101
H         1.1403778247        2.0681790181        1.3186308050
H         1.0428242367       -3.3688802572       -1.0484210053
H         3.3382342277       -2.3854059149       -1.1774265997
H        -4.2161479664       -1.4000703958        1.2085153252
H        -4.3590074402       -3.8572649806        1.3051271384
H        -2.5134015473       -5.2612589804        0.3973943593
H        -0.4231399865       -4.1716651670       -0.4136613696
H         0.2428462533        2.5098901710       -0.1813564678
H        -1.7297337874        3.9642046844       -0.2323626477
H        -4.1150695366        4.2605070323       -0.3031888629
H        -6.4070401309        3.3090556187       -0.5205031555
H        -6.7098700200        0.8429266916       -0.5860603245
H        -4.8001609108       -0.6648301700       -0.3213125839
