 46

C         0.2574088447       -2.6553105890        0.0000000000
C        -0.9864426861       -3.2421710854        0.0000000000
C         0.4038823362       -1.2527588708        0.0000000000
C         0.6477095130        1.6040291233        0.0000000000
C         0.7424721071        2.9996204723        0.0000000000
C        -0.3991551650        3.7880024642        0.0000000000
C        -1.6538511596        3.1952842721        0.0000000000
C        -0.7382749080       -0.4440286354        0.0000000000
C        -0.6251086100        0.9973621404        0.0000000000
C        -1.7837545555        1.8033830206        0.0000000000
C        -3.1030910831        1.1835721763        0.0000000000
C        -4.2666453281        1.9472419405        0.0000000000
C        -5.5219744103        1.3372771514        0.0000000000
C        -5.6316247212       -0.0404232264        0.0000000000
C        -2.0236229741       -1.0444262265        0.0000000000
C        -3.2049458174       -0.2279841283        0.0000000000
C        -4.4757787563       -0.8391765910        0.0000000000
C        -4.5690174021       -2.2735774162        0.0000000000
C        -3.4540227346       -3.0422774651        0.0000000000
C        -2.1475167358       -2.4449873027        0.0000000000
C         1.8489046819        0.7763249549        0.0000000000
C         1.7280468827       -0.6444304224        0.0000000000
C         2.8703487793       -1.4260973423        0.0000000000
C         3.1071866547        1.3526801096        0.0000000000
C         4.2743500746        0.5622030919        0.0000000000
C         4.1543885987       -0.8447837419        0.0000000000
C         5.3345051267       -1.6443177707        0.0000000000
C         6.5655328728       -1.0536186376        0.0000000000
C         6.6860281799        0.3598523338        0.0000000000
C         5.5727176553        1.1504098596        0.0000000000
H         1.1647871174       -3.2788631975        0.0000000000
H        -1.0840167829       -4.3338091236        0.0000000000
H         1.7384066799        3.4684264680        0.0000000000
H        -0.3100563517        4.8792976918        0.0000000000
H        -2.5634754146        3.8154349330        0.0000000000
H        -4.1860287016        3.0451626079        0.0000000000
H        -6.4230393274        1.9595663305        0.0000000000
H        -6.6177709986       -0.5183584065        0.0000000000
H        -5.5671324717       -2.7265179504        0.0000000000
H        -3.5222223025       -4.1362330563        0.0000000000
H         2.7773557425       -2.5241135091        0.0000000000
H         3.2019114800        2.4506054714        0.0000000000
H         5.2322169234       -2.7352953446        0.0000000000
H         7.4758993680       -1.6619872941        0.0000000000
H         7.6862287182        0.8053593841        0.0000000000
H         5.6566112426        2.2429595456        0.0000000000
