 48

C         6.2115537879       -0.8935374605        0.3523996614
C         6.3355198186        0.4764942224        0.0086567185
C         5.2241484399        1.2387129064       -0.2147008314
C         4.9788265666       -1.4716989134        0.4626984982
C         3.8026722455       -0.7014050435        0.2332742809
C         3.9254273536        0.6631749085       -0.1045463875
C         2.7592224428        1.4295220872       -0.3147187719
C         2.5158032156       -1.2726125873        0.3234822682
C         1.3796818725       -0.5175663938        0.0987963040
C         1.4993839930        0.8698292500       -0.2001459398
C         0.0558991498       -1.1302453758        0.0989350716
C        -1.1072376838       -0.3137078389       -0.0590959298
C        -2.3194577477       -0.9425558734       -0.2785512994
C        -0.0656318609       -2.5053273486        0.1714955181
C        -1.3159943658       -3.1409341437        0.0243358654
C        -2.4515221677       -2.3480548994       -0.2378365131
C        -3.7100630908       -2.9829004315       -0.4442311994
C        -3.8137016390       -4.3433930410       -0.3717751718
C        -2.6737415139       -5.1386118797       -0.0925200617
C        -1.4528110727       -4.5563155861        0.1001301861
C        -0.9674602580        1.1450002869       -0.0711762987
C         0.2931164798        1.6864134674       -0.3064593669
C         0.4304232168        3.0695681073       -0.6135951239
C        -0.6444714042        3.9042377445       -0.6035124292
C        -2.0713238594        2.0493572063        0.1319403912
C        -1.9104642759        3.4180630662       -0.1778525939
C        -2.9923642298        4.3242692144       -0.0251472794
C        -4.1885301855        3.8983275369        0.4856332622
C        -4.3376818823        2.5517146607        0.8767286363
C        -3.3130843205        1.6590362574        0.7037146829
H         7.1197624025       -1.4795590567        0.5273362138
H         7.3363591807        0.9128096375       -0.0740060582
H         5.3113440005        2.2984291633       -0.4795250239
H         4.8735370875       -2.5298517704        0.7270330179
H         2.8669057424        2.4971180448       -0.5636893748
H         2.4197913997       -2.3441263743        0.5616483878
H        -3.2249693140       -0.3527181851       -0.4834841165
H         0.8331388692       -3.1239905279        0.3267117691
H        -4.5866832416       -2.3617208526       -0.6600718625
H        -4.7781942282       -4.8376265209       -0.5279666831
H        -2.7879414997       -6.2260696309       -0.0355168743
H        -0.5649828277       -5.1623178894        0.3123861179
H         1.4281282287        3.4551571741       -0.8724683854
H        -0.5431971881        4.9589791522       -0.8834260960
H        -2.8483419008        5.3719860414       -0.3133238164
H        -5.0264961761        4.5920015473        0.6074727355
H        -5.2820368926        2.2274847302        1.3265201860
H        -3.4526741776        0.6173988229        1.0240297584
