 48

C         5.4330901150       -0.3415299928        0.8349337260
C         5.7699116820        1.0111908546        1.0344231485
C         4.8083632286        1.9760894660        0.8849439973
C         4.1632616171       -0.6949178982        0.4555532174
C         3.1501294974        0.2781564685        0.2502298738
C         3.4861753774        1.6214264708        0.5182017905
C         2.4770452358        2.6246551008        0.4657943629
C         1.1884234841        2.2851178034        0.2052523794
C         1.8013642181       -0.0474103466       -0.1469550247
C         0.8121023209        0.9401287067       -0.0946382017
C         1.3964545676       -1.3674832294       -0.5911354613
C         0.0453388307       -1.7466018155       -0.4517970665
C        -0.3446267841       -3.0387769174       -0.8673934940
C         0.5521915862       -3.9061899004       -1.4478151338
C         1.8790581966       -3.5047367791       -1.6461811256
C         2.2873245618       -2.2595002705       -1.2247388278
C        -0.9333364483       -0.7574745488       -0.0518465723
C        -0.5885409082        0.5812416887       -0.2052596009
C        -2.2497663995       -1.0896808291        0.4640623687
C        -3.2525802752       -0.1040342525        0.4834592930
C        -4.5086802002       -0.3898382635        1.0522725941
C        -4.7624415769       -1.6198279696        1.6189208798
C        -3.7606588371       -2.5978278939        1.6270511964
C        -2.5323643026       -2.3375545273        1.0574413880
C        -2.9796353970        1.1963872414       -0.0927620461
C        -1.6583193553        1.5414774375       -0.4300219049
C        -1.4437307982        2.7702574812       -1.0880775883
C        -2.4839917613        3.6371764264       -1.3483051555
C        -3.7872596578        3.3113424758       -0.9550859815
C        -4.0288251097        2.1031479637       -0.3386103044
H         6.1962591743       -1.1115446024        0.9894726831
H         6.7927548980        1.2779214994        1.3187809335
H         5.0451858794        3.0324637871        1.0565120200
H         3.9269442818       -1.7579586970        0.3105629290
H         2.7532101745        3.6652522093        0.6722111440
H         0.4130102612        3.0633790931        0.2233771284
H        -1.3900160955       -3.3509434240       -0.7358204805
H         0.2291613391       -4.9006308202       -1.7724292088
H         2.5846826535       -4.1802873497       -2.1405125734
H         3.3284929558       -1.9505607334       -1.3914142574
H        -5.2836360791        0.3917526876        1.0334435510
H        -5.7387117126       -1.8342073756        2.0652599926
H        -3.9561198451       -3.5707595838        2.0898067621
H        -1.7575592071       -3.1167507821        1.0619892290
H        -0.4259994540        3.0417953809       -1.4006052406
H        -2.2938026369        4.5830191116       -1.8661569105
H        -4.6075561498        4.0098847014       -1.1484141599
H        -5.0480326295        1.8221859435       -0.0316808055
