 48

C         5.1183285868       -3.4107221208        0.0000000000
C         5.7606738930       -2.1913553479        0.0000000000
C         2.9746524450       -2.3091122352        0.0000000000
C         3.7166502244       -3.4699063158        0.0000000000
C         3.6113200439       -1.0518249347        0.0000000000
C         5.0156635768       -0.9949173588        0.0000000000
C         5.6802983080        0.2820505843        0.0000000000
C         4.9722156169        1.4336961381        0.0000000000
C         2.8481468536        0.1804117681        0.0000000000
C         3.5321046908        1.4175827449        0.0000000000
C         2.8044481715        2.6123877101        0.0000000000
C         1.4502728087        0.1722519279        0.0000000000
C         0.7216149617        1.3595343583        0.0000000000
C         1.4106859166        2.5964753772        0.0000000000
C         0.6599906617        3.8298841275        0.0000000000
C        -0.6891431354        3.8247363272        0.0000000000
C        -0.7319429771        1.3540034500        0.0000000000
C        -1.4304205920        2.5856521909        0.0000000000
C        -2.8242713114        2.5909465719        0.0000000000
C        -1.4515346297        0.1611932154        0.0000000000
C        -2.8494258443        0.1586976892        0.0000000000
C        -3.5428018393        1.3906327306        0.0000000000
C        -4.9830223918        1.3957801333        0.0000000000
C        -5.6823277629        0.2387256242        0.0000000000
C        -3.6031869504       -1.0793459711        0.0000000000
C        -5.0079772403       -1.0331673412        0.0000000000
C        -5.7438437022       -2.2352703610        0.0000000000
C        -5.0921704644       -3.4497389547        0.0000000000
C        -3.6900806636       -3.4982121018        0.0000000000
C        -2.9569385670       -2.3317394596        0.0000000000
H         5.6977862878       -4.3397036580        0.0000000000
H         6.8554730986       -2.1407390354        0.0000000000
H         1.8740891431       -2.3378549761        0.0000000000
H         3.2166326766       -4.4438764012        0.0000000000
H         6.7763721954        0.2926735207        0.0000000000
H         5.4765949681        2.4069050858        0.0000000000
H         3.3379810609        3.5711595134        0.0000000000
H         0.9138833592       -0.7963298207        0.0000000000
H         1.2215458636        4.7713369390        0.0000000000
H        -1.2578504697        4.7618876471        0.0000000000
H        -3.3650734664        3.5456368594        0.0000000000
H        -0.9077788828       -0.8032670592        0.0000000000
H        -5.4947875555        2.3651316061        0.0000000000
H        -6.7784582579        0.2409910260        0.0000000000
H        -6.8390015670       -2.1930470000        0.0000000000
H        -5.6645575128       -4.3830991083        0.0000000000
H        -3.1825907319       -4.4683125717        0.0000000000
H        -1.8561927871       -2.3521363808        0.0000000000
