 48

C         6.4312147233       -2.7026066213        0.0000000000
C         6.7204744187       -1.3542664550        0.0000000000
C         4.0701720826       -2.2193240738        0.0000000000
C         5.0983700028       -3.1375338388        0.0000000000
C         4.3438087856       -0.8377473607        0.0000000000
C         5.6806316538       -0.4042126420        0.0000000000
C         5.9770619846        1.0058297863        0.0000000000
C         4.9862547426        1.9240670346        0.0000000000
C         3.2744683787        0.1432637502        0.0000000000
C         3.6016555391        1.5223153980        0.0000000000
C         2.5833092194        2.4741251548        0.0000000000
C         1.9352669098       -0.2408959678        0.0000000000
C         0.9072663119        0.7073168745        0.0000000000
C         1.2403498467        2.0824709217        0.0000000000
C         0.1883686265        3.0611835514        0.0000000000
C        -1.1106707135        2.6821664971        0.0000000000
C        -0.4867621707        0.3161571443        0.0000000000
C        -1.4858112512        1.2945488075        0.0000000000
C        -2.1647987761       -1.4300160346        0.0000000000
C        -0.8521670518       -1.0558584390        0.0000000000
C        -3.1986273403       -0.4564187338        0.0000000000
C        -2.8630593133        0.9037115122        0.0000000000
C        -3.9107146245        1.8830280707        0.0000000000
C        -5.2163942721        1.5176538895        0.0000000000
C        -4.5868273407       -0.8533501086        0.0000000000
C        -5.5879672195        0.1340515405        0.0000000000
C        -6.9487880064       -0.2482189863        0.0000000000
C        -7.2955600254       -1.5783536074        0.0000000000
C        -6.2970267780       -2.5691888140        0.0000000000
C        -4.9693152387       -2.2145100894        0.0000000000
H         7.2403180137       -3.4402417921        0.0000000000
H         7.7610946327       -1.0103771262        0.0000000000
H         3.0184332987       -2.5447982716        0.0000000000
H         4.8790180044       -4.2101597016        0.0000000000
H         7.0300520742        1.3103268875        0.0000000000
H         5.2101733401        2.9971054330        0.0000000000
H         2.8357021681        3.5419008820        0.0000000000
H         1.6816928220       -1.3184528141        0.0000000000
H         0.4663545064        4.1214608101        0.0000000000
H        -1.9181792619        3.4301300595        0.0000000000
H        -2.4517534140       -2.4928764932        0.0000000000
H        -0.0481746903       -1.8080780265        0.0000000000
H        -3.6211677211        2.9449107927        0.0000000000
H        -6.0122036564        2.2713429308        0.0000000000
H        -7.7210418889        0.5294030756        0.0000000000
H        -8.3490601616       -1.8764351049        0.0000000000
H        -6.5868452663       -3.6250110704        0.0000000000
H        -4.1786300451       -2.9802555766        0.0000000000
