 46

C         4.0057719174        1.3918567210        0.5946855416
C         3.4624315811        0.1722374066        0.1125981502
C         4.3615996306       -0.9010647984       -0.0674958288
C         5.7559111787       -0.7109890239        0.1029617547
C         6.2472705657        0.4999759968        0.5147598111
C         5.3539059092        1.5532920124        0.7892179204
C         3.8658497512       -2.2020030576       -0.3706412335
C         2.5264591588       -2.4245761424       -0.3934920513
C         1.5964556144       -1.3539007761       -0.2333108711
C         2.0513409170       -0.0390103646       -0.1200651755
C         0.1806138005       -1.6591274127       -0.1771340982
C        -0.7454028840       -0.6152738568       -0.0841044968
C        -0.3009774593        0.7512431509       -0.1551494842
C         1.0803782323        1.0403063413       -0.2458427155
C         1.4531866878        2.3645915551       -0.5319448336
C         0.5172804191        3.3801056285       -0.6043311640
C        -0.8305517596        3.1079280831       -0.3957515462
C        -1.2542684703        1.7987529032       -0.1838160822
C        -2.1317150358       -0.9086547067        0.0334181400
C        -3.0909061448        0.1555981842        0.0964474166
C        -2.6718694914        1.5035435716       -0.0086540517
C        -2.5686894254       -2.2408297213        0.0796270171
C        -1.6212619148       -3.2827520571       -0.0299897554
C        -0.2868313276       -2.9954449427       -0.1638009443
C        -4.4595609359       -0.1462563736        0.2475304809
C        -5.3975114913        0.8994793670        0.3136306284
C        -4.9785866937        2.2120191208        0.2189155150
C        -3.6246943310        2.5145248254        0.0532097465
C        -3.9671080444       -2.5239099170        0.2326297639
C        -4.8732191450       -1.5195196484        0.3211346181
H        -1.5748856422        3.9187240361       -0.4131803102
H         2.5093908233        2.6100685176       -0.7080184037
H         0.8376831430        4.4040575889       -0.8238016805
H        -1.9657086887       -4.3230126849       -0.0079977442
H         0.4442430805       -3.8127502662       -0.2560020152
H        -3.2995393473        3.5626769503       -0.0339004316
H        -5.7089011372        3.0263945463        0.2701118941
H        -6.4603939036        0.6634501558        0.4377232343
H        -5.9412854719       -1.7324967134        0.4443758887
H        -4.2813261886       -3.5729613574        0.2781019297
H         2.1337992717       -3.4401767609       -0.5528021309
H         4.5779721339       -3.0169005042       -0.5437005791
H         6.4317815383       -1.5527372826       -0.0872952457
H         7.3226420887        0.6535741846        0.6495451494
H         5.7466735416        2.5036128015        1.1659122562
H         3.3321290992        2.2262007744        0.8329202866
