 48

C         4.7832595052        3.1539149664        0.3875495152
C         3.9152799661        2.0399990356        0.3464551058
C         4.3947276606        0.7915690744       -0.0833294038
C         5.7525523242        0.6802015091       -0.4619275450
C         6.5852757184        1.7731343845       -0.4196936654
C         6.0977478124        3.0210804274        0.0074505465
C         3.4960864710       -0.3405813284       -0.1278746142
C         2.1291810626       -0.1787718308        0.1661448347
C         1.7043280888        1.1003319212        0.6627836059
C         2.5483670839        2.1566248598        0.7542160168
C         4.0030594865       -1.6255141996       -0.4392182985
C         3.1867553731       -2.7192664474       -0.3871155117
C         1.8042052565       -2.5666426595       -0.1243759362
C         1.2386463542       -1.2959506832        0.0369371075
C         1.0057918023       -3.7614244812        0.0091885897
C        -0.3175893612       -3.6863405371        0.2436774166
C        -0.9894391177       -2.4082017895        0.2333998059
C        -0.2221683392       -1.2039543766        0.0550887411
C        -2.3642231969       -2.3682881429        0.3128222940
C        -3.0696806533       -1.1482409954        0.1603881841
C        -2.3302697184        0.0311858992       -0.1183494310
C        -0.9130253469       -0.0324928275       -0.1719618376
C        -4.4711436299       -1.0899726385        0.2464232574
C        -5.1390021372        0.1126875527        0.0505092375
C        -4.3984937973        1.2959824877       -0.2440798697
C        -3.0122182935        1.2431507998       -0.3253771434
C        -6.5708555300        0.1951501722        0.1349511164
C        -7.2078637462        1.3771783978       -0.0644993062
C        -6.4666709147        2.5615447129       -0.3621260601
C        -5.1124592484        2.5257612963       -0.4493597563
H        -7.0154553510        3.4961202303       -0.5177016848
H        -8.2988043376        1.4454696921       -0.0014200889
H        -7.1304327702       -0.7189010152        0.3638180638
H        -4.5352304040        3.4289347490       -0.6776241141
H        -5.0368674429       -2.0031420245        0.4684800946
H        -2.4420507500        2.1529655987       -0.5506648000
H        -2.9361592001       -3.2915666809        0.4702671232
H        -0.3763906915        0.8997825359       -0.4014422892
H        -0.9202087967       -4.5873290834        0.4066458004
H         1.5158799398       -4.7299778200       -0.0525374277
H         3.5901537737       -3.7237606048       -0.5607150337
H         5.0698773053       -1.7270179206       -0.6903251234
H         2.2024688465        3.1191775497        1.1486830490
H         0.6654976838        1.2161360032        1.0015890043
H         6.1290665554       -0.2999454393       -0.7915991273
H         7.6345459768        1.6794386587       -0.7181500543
H         6.7733062939        3.8821684891        0.0352582583
H         4.3944773984        4.1210782567        0.7257481256
