 46

C         5.1055633630       -1.3074750868       -0.1467043625
C         5.3836380286        0.0026098018       -0.3334800813
C         3.7571916687       -1.7515360045        0.0896078412
C         1.1480057305       -2.5847934869        0.5786099851
C         2.2017939034       -3.4953767335        0.6592947502
C         3.4950879563       -3.0984856818        0.3821330408
C         4.3380395117        0.9888057354       -0.2782629171
C         4.6346067125        2.3567501457       -0.3756892472
C         3.6213861333        3.2921250875       -0.2712204839
C         2.3013928531        2.8856497635       -0.0811274894
C         2.6968675176       -0.8220204861        0.0501267672
C         3.0024919641        0.5728546663       -0.0976996431
C         1.9714339000        1.5336562853       -0.0040520597
C         1.3548223569       -1.2552046155        0.2137928884
C         0.2652072019       -0.2879882053        0.0717207693
C         0.5884541728        1.0857806139        0.1229954447
C        -0.4208074007        2.0484158032        0.2557661716
C        -1.7596731503        1.6864352260        0.2714739096
C        -2.7971886786        2.6665454426        0.4811936068
C        -4.1018871192        2.3207525219        0.4352609822
C        -4.4960972690        0.9623953943        0.1546869439
C        -5.8415938907        0.5978994937        0.0820720165
C        -6.1997424619       -0.7156890894       -0.2069217151
C        -5.2279899015       -1.6792484944       -0.4342928808
C        -3.4946882050       -0.0150713059       -0.0571471542
C        -3.8716967544       -1.3393789034       -0.3645587472
C        -2.8350861195       -2.2993428768       -0.6208714818
C        -1.5292919351       -1.9661515635       -0.4985908826
C        -1.0981732890       -0.6469909388       -0.1077842691
C        -2.1060567526        0.3344385085        0.0363902146
H         5.9000144069       -2.0624553691       -0.1663859945
H         6.4087506487        0.3447785031       -0.5158183190
H         0.1358230754       -2.9439527730        0.8097357647
H         1.9947371552       -4.5334130837        0.9405889160
H         4.3189536955       -3.8202867340        0.4113399262
H         5.6718322467        2.6767573714       -0.5259104500
H         3.8525227475        4.3604357439       -0.3383142389
H         1.5069288840        3.6423502271        0.0040402778
H        -0.1428245370        3.1106917510        0.3480124690
H        -2.4923904680        3.7000969979        0.6819666766
H        -4.8916241615        3.0620799104        0.6025197719
H        -6.6182581862        1.3520961043        0.2524974305
H        -7.2590276713       -0.9887199635       -0.2588677259
H        -5.5163350539       -2.7095802610       -0.6709546135
H        -3.1308046013       -3.3087968342       -0.9295631217
H        -0.7624051034       -2.7198581835       -0.7249234878
