 46

C         1.4301206059       -0.7398784937        0.0000000000
C         2.4956991561       -1.5941115410        0.0000000000
C         0.5594973420        1.5931941430        0.0000000000
C         1.6504026597        0.6861185007        0.0000000000
C         2.9666345263        1.1873313951        0.0000000000
C         3.1797304686        2.5815488443        0.0000000000
C         2.1144607794        3.4527269129        0.0000000000
C         0.8053995432        2.9589006232        0.0000000000
C         0.0576013701       -1.2442141239        0.0000000000
C        -1.4889366266       -3.1170774209        0.0000000000
C        -0.1961594341       -2.6222036606        0.0000000000
C        -1.0212776023       -0.3450687951        0.0000000000
C        -0.8132513122        1.0860759879        0.0000000000
C        -1.8815631368        1.9342522076        0.0000000000
C        -3.2320724843        1.4488003300        0.0000000000
C        -4.3255582332        2.3218181446        0.0000000000
C        -5.6207916131        1.8193960701        0.0000000000
C        -5.8522171040        0.4486169265        0.0000000000
C        -2.3442743215       -0.8470683122        0.0000000000
C        -3.4572039306        0.0543145562        0.0000000000
C        -4.7787398362       -0.4469503474        0.0000000000
C        -4.9837848545       -1.8727864388        0.0000000000
C        -3.9344100695       -2.7265199348        0.0000000000
C        -2.5789215650       -2.2399894514        0.0000000000
C         4.0861119014        0.2721385371        0.0000000000
C         3.8417767779       -1.1115960143        0.0000000000
C         4.9288841209       -2.0144240204        0.0000000000
C         6.2212907529       -1.5436297641        0.0000000000
C         6.4689896062       -0.1601308127        0.0000000000
C         5.4213258770        0.7313572820        0.0000000000
H         2.3276309964       -2.6834432799        0.0000000000
H         4.2152320608        2.9551305529        0.0000000000
H         2.2836571188        4.5344656121        0.0000000000
H        -0.0436178212        3.6597972199        0.0000000000
H        -1.6626784579       -4.1991582391        0.0000000000
H         0.6578021336       -3.3173981903        0.0000000000
H        -1.7185714499        3.0243292352        0.0000000000
H        -4.1555111921        3.4043367203        0.0000000000
H        -6.4697683282        2.5112985457        0.0000000000
H        -6.8786684936        0.0648310676        0.0000000000
H        -6.0149251903       -2.2442909683        0.0000000000
H        -4.0899323932       -3.8115548486        0.0000000000
H         4.7286830269       -3.0918903854        0.0000000000
H         7.0647048476       -2.2417766157        0.0000000000
H         7.5021092981        0.2023808949        0.0000000000
H         5.6024903968        1.8170758789        0.0000000000
