 48

C        -4.7897572341        3.5127116319        0.4145637065
C        -5.4772277412        2.3387188896        0.1904484991
C        -2.6963220688        2.3188730983        0.3801569576
C        -3.3909907006        3.5023625420        0.5097769176
C        -3.3788156914        1.1076378961        0.1531258638
C        -4.7812341348        1.1212359922        0.0569353254
C        -5.4972974459       -0.1067101391       -0.1779623143
C        -4.8402641687       -1.2808388802       -0.2998484873
C        -2.6662308161       -0.1493722193        0.0130816058
C        -3.4039087379       -1.3376310596       -0.1995762948
C        -2.7254758680       -2.5515267645       -0.2811624216
C        -1.2744183704       -0.2097654944        0.0795126437
C        -0.5693861500       -1.4092261400       -0.0695866400
C        -1.3313073444       -2.6022357704       -0.1854461716
C        -0.6791892570       -3.8813653102       -0.1320970299
C         0.6481830542       -3.9547093849        0.1063787019
C         0.8841040888       -1.4968976890       -0.0280573113
C         1.4466998846       -2.7628548291        0.1884801188
C         2.8295037855       -2.9057402833        0.4739251703
C         3.6437663355       -1.8129904346        0.4995670272
C         1.7822510104       -0.3851307376       -0.1889107308
C         3.1417067247       -0.5367792045        0.1346109717
C         2.2179728624        1.9221731965       -0.8668839634
C         1.3700138319        0.8706566853       -0.7485818959
C         3.5746915563        1.8215988063       -0.4256976246
C         4.0432826901        0.5903483096        0.0624432991
C         5.3942571834        0.4926481234        0.4706063629
C         6.2288559221        1.5822308701        0.4026298557
C         5.7512089868        2.8140397544       -0.0806902252
C         4.4451170558        2.9332257568       -0.4912630909
H        -5.3317218069        4.4582732498        0.5190300199
H        -6.5705849528        2.3423411947        0.1145680480
H        -1.5977833366        2.2978314893        0.4514869017
H        -2.8537136594        4.4395236184        0.6880159125
H        -6.5898462458       -0.0595519419       -0.2529147422
H        -5.3815653944       -2.2174519802       -0.4762541476
H        -3.2933880183       -3.4827903807       -0.4022056540
H        -0.7351705924        0.7359787691        0.2665237519
H        -1.2880767409       -4.7852255008       -0.2485140957
H         1.1495845361       -4.9234255826        0.2168834907
H         3.2285519685       -3.9045543625        0.6861216796
H         4.7071883965       -1.9042562884        0.7682898269
H         1.8824340042        2.8664258453       -1.3114394603
H         0.3397349003        0.9732597055       -1.1170337926
H         5.7631675698       -0.4746882645        0.8437701113
H         7.2723141023        1.4992349822        0.7238001942
H         6.4284670181        3.6729693765       -0.1276852395
H         4.0636005971        3.8874376132       -0.8718709354
