 46

C         3.4226747222        3.0412539263        0.0703646957
C         2.1357140959        3.4788492413        0.2127465751
C         3.7043747297        1.6529635140       -0.0348903649
C         5.3219444198       -0.1419996686       -0.2584378920
C         5.0517083322        1.1855594594       -0.1721684690
C         4.2665875386       -1.1113971931       -0.2105589987
C         2.1837433565       -2.9738131823       -0.0960770640
C         3.5095888293       -3.4051953333       -0.2233362308
C         4.5405281451       -2.4919741925       -0.2821826990
C         2.9335820208       -0.6740690214       -0.0844670259
C         2.6537149196        0.7287424576       -0.0011400340
C         1.8802510918       -1.6210694637       -0.0296357596
C         0.5024585332       -1.1538540223        0.0913883902
C        -0.5381080911       -2.0436257639        0.2099359056
C        -1.1112960561        0.7039078903        0.1832572487
C         0.2196731171        0.2459740107        0.1234114404
C         1.3061635091        1.1814642794        0.1219021289
C         1.0573602953        2.5545622065        0.2442356043
C        -0.2872491822        2.9940730832        0.4201355258
C        -1.3156535406        2.1053639650        0.3939297106
C        -1.8808358779       -1.5987551710        0.2448210399
C        -2.1955895741       -0.2364283701        0.1062936590
C        -4.2141211375       -2.2186815798        0.4368256328
C        -2.9100083678       -2.5789907573        0.4384282680
C        -4.5834552905       -0.8708127411        0.1212905536
C        -3.5907612551        0.1066844132       -0.1044168913
C        -4.0211698909        1.3568876227       -0.6078587719
C        -5.3549717566        1.6466303373       -0.7768600872
C        -6.3360351210        0.6957409125       -0.4541374676
C        -5.9523836013       -0.5512211992       -0.0233188774
H         4.2552228289        3.7533774400        0.0389586367
H         1.9152966270        4.5486868299        0.3027597197
H         6.3519651106       -0.5012894731       -0.3646369267
H         5.8580238210        1.9272402901       -0.2061474501
H         1.3659270309       -3.7090600675       -0.0445512935
H         3.7209681764       -4.4783794065       -0.2756932592
H         5.5782739500       -2.8291262176       -0.3832792248
H        -0.3229439538       -3.1241185892        0.2553365543
H        -0.4732502708        4.0615292501        0.5861376000
H        -2.3378746541        2.4721613735        0.5600525360
H        -5.0066927582       -2.9493171147        0.6348685487
H        -2.6124069087       -3.6200320327        0.6102798941
H        -3.2771428193        2.1149028819       -0.8877485153
H        -5.6597074753        2.6224704883       -1.1694286889
H        -7.3955134842        0.9474002767       -0.5654508210
H        -6.7041701884       -1.3170511179        0.2003275281
