 48

C         4.3299338500       -3.5115418573        0.5889093883
C         5.0718418571       -2.3993551258        0.2494991995
C         2.3089785485       -2.1989270633        0.5564272576
C         2.9406410613       -3.4105145059        0.7425111857
C         3.0478301815       -1.0503522056        0.2134358293
C         4.4408018755       -1.1554189148        0.0571014881
C         5.2142222307        0.0075648755       -0.3001664779
C         4.6211584201        1.2070396515       -0.4810539959
C         2.4013527104        0.2353624932        0.0139845181
C         3.1962195538        1.3600738971       -0.3213935738
C         2.5875088503        2.6010373023       -0.4650319447
C         1.0242817872        0.3849507784        0.1430205636
C         0.3796976246        1.6141137990       -0.0623827015
C         1.2015647228        2.7455847316       -0.3096058218
C         0.6262689342        4.0567179353       -0.3413980057
C        -0.6876231856        4.2262557116       -0.0599760452
C        -1.0562657560        1.7945745756        0.0398770546
C        -1.5384651426        3.0962274944        0.1597990461
C        -2.9056586797        3.3533067424        0.5170768376
C        -3.7743822540        2.3352854234        0.7000887360
C        -2.0280536615        0.7096535681        0.0250391124
C        -3.3727699780        0.9837720206        0.4201135537
C        -4.3229456216       -0.0315577348        0.4724754703
C        -1.7403900700       -0.5759519127       -0.4272974141
C        -2.6959175408       -1.6023167223       -0.4020591872
C        -3.9994541223       -1.3368957524        0.0809630481
C        -4.9567104261       -2.3976687094        0.1284143893
C        -4.6196677850       -3.6466838592       -0.2980593574
C        -3.3141214772       -3.9117876673       -0.7973689693
C        -2.3785090111       -2.9231333139       -0.8503396185
H         4.8219303758       -4.4779626953        0.7395458165
H         6.1583856497       -2.4743600707        0.1270227858
H         1.2176353403       -2.1080590152        0.6723001777
H         2.3594424093       -4.2984766698        1.0117198225
H         6.2972681617       -0.1117975859       -0.4196287225
H         5.2062094902        2.0934502021       -0.7519723081
H         3.1992904616        3.4847361340       -0.6869093797
H         0.4420551900       -0.5083695834        0.4315607627
H         1.2755110674        4.9120808019       -0.5606401850
H        -1.1287944793        5.2290241118       -0.0165150615
H        -3.2173929370        4.3941885173        0.6636022684
H        -4.8047815818        2.5180621322        1.0260307998
H        -5.3446499454        0.1930568824        0.8038869287
H        -0.7444395286       -0.8161661306       -0.8279807556
H        -5.9600579770       -2.1814183221        0.5121252104
H        -5.3468975688       -4.4645324067       -0.2653152232
H        -3.0766534059       -4.9250824823       -1.1375719629
H        -1.3703432734       -3.1192404088       -1.2331928915
