 48

C        -6.0304013171        2.7029496229       -0.4553511110
C        -6.8343150627        1.5967832050       -0.0390852425
C        -6.2678454692        0.3937359883        0.2306831298
C        -4.6865372946        2.5698134897       -0.5868997394
C        -4.0443521809        1.3135798623       -0.3102779374
C        -4.8479563730        0.2078151901        0.1033481875
C        -4.2530414788       -1.0169629531        0.3699993316
C        -2.6707971866        1.1621554501       -0.4358695727
C        -2.0581988727       -0.0750570907       -0.1569864279
C        -2.8605992626       -1.1775478702        0.2397266529
C        -2.2324022641       -2.4248725514        0.4639051711
C        -0.6544721769       -0.2364654007       -0.2561746496
C        -0.0302563491       -1.4342819946        0.0349649891
C        -0.8647196275       -2.5648142861        0.3392838285
C        -0.2756627257       -3.8761067710        0.4410112881
C         1.0340437765       -4.0555722414        0.1741697272
C         1.4151342777       -1.6287664523       -0.0307872149
C         1.8929584099       -2.9314366052       -0.0910450797
C         3.2630552405       -3.2078043640       -0.4109230715
C         4.1415440441       -2.1992755700       -0.6111386331
C         2.3866561063       -0.5468529694       -0.0387922642
C         3.7395875717       -0.8392290243       -0.3885321500
C         4.6945459989        0.1730267480       -0.4564959145
C         2.0897637719        0.7591030711        0.3503501967
C         3.0485071211        1.7796391807        0.3108732706
C         4.3648215995        1.4917027589       -0.1254762041
C         5.3271838592        2.5482720647       -0.1881216675
C         4.9837311779        3.8131967042        0.1803303197
C         3.6657768374        4.1011333896        0.6345974534
C         2.7254493287        3.1186033692        0.7002763621
H        -6.5240142734        3.6575381464       -0.6648796844
H        -7.9151446309        1.7434259670        0.0562526263
H        -6.8756368622       -0.4604447546        0.5500107358
H        -4.0618944883        3.4119808899       -0.9056555032
H        -4.8663400215       -1.8708746722        0.6829687650
H        -2.0518657673        2.0107604871       -0.7527968111
H        -2.8543142487       -3.2926216294        0.7180052222
H        -0.0681594944        0.6367142264       -0.5784227234
H        -0.9250790879       -4.7198493294        0.7013076338
H         1.4807231276       -5.0568004965        0.1844268488
H         3.5733437458       -4.2542660530       -0.5142751866
H         5.1776977900       -2.3982461973       -0.9079647070
H         5.7228300852       -0.0668606059       -0.7552094864
H         1.0818872143        1.0153770870        0.7085840844
H         6.3394921138        2.3142275400       -0.5362051353
H         5.7140834668        4.6276452707        0.1350682398
H         3.4240819102        5.1275280938        0.9295059306
H         1.7089109471        3.3321471199        1.0497367278
