 48

C         5.6575129597       -3.2935327987        0.0000000000
C         6.7682337865       -2.4103687816        0.0000000000
C         6.5785051009       -1.0586952314        0.0000000000
C         4.3833786277       -2.8039862018        0.0000000000
C         4.1529047086       -1.3966658396        0.0000000000
C         5.2593660395       -0.5166197254        0.0000000000
C         5.0377502336        0.8756521656        0.0000000000
C         2.8468695182       -0.8674731663        0.0000000000
C         2.6335713354        0.5000839264        0.0000000000
C         3.7507472349        1.3848560843        0.0000000000
C         3.5253051519        2.8143077430        0.0000000000
C         2.2795255195        3.3261324767        0.0000000000
C         1.2868011875        1.0572323769        0.0000000000
C         1.1160805537        2.4665106867        0.0000000000
C        -0.1625266990        3.0069905473        0.0000000000
C         0.1677807231        0.2364454020        0.0000000000
C        -1.1309476637        0.7708179852        0.0000000000
C        -1.2934787128        2.1737889743        0.0000000000
C        -2.6142768041        2.7305859027        0.0000000000
C        -3.7040820974        1.9237919330        0.0000000000
C        -2.3001516259       -0.0766555934        0.0000000000
C        -3.5711790169        0.4970010611        0.0000000000
C        -3.2604680410       -2.3063366059        0.0000000000
C        -2.1670464782       -1.4992163882        0.0000000000
C        -4.5751678606       -1.7466450814        0.0000000000
C        -4.7362192026       -0.3484164785        0.0000000000
C        -6.0472134726        0.1881014509        0.0000000000
C        -7.1423570776       -0.6385435098        0.0000000000
C        -6.9767519962       -2.0378613367        0.0000000000
C        -5.7174899498       -2.5835864690        0.0000000000
H         5.8404241199       -4.3730721148        0.0000000000
H         7.7787710709       -2.8318903771        0.0000000000
H         7.4306304350       -0.3696829285        0.0000000000
H         3.5200221023       -3.4787385218        0.0000000000
H         5.8996598848        1.5544723048        0.0000000000
H         1.9801232444       -1.5482137580        0.0000000000
H         4.4048822023        3.4687029102        0.0000000000
H         2.1131741020        4.4096900315        0.0000000000
H        -0.2972103945        4.0959217841        0.0000000000
H         0.2995118243       -0.8626721319        0.0000000000
H        -2.7206944428        3.8214357111        0.0000000000
H        -4.7226072865        2.3417842310        0.0000000000
H        -3.1545993308       -3.3971980292        0.0000000000
H        -1.1494352298       -1.9195607746        0.0000000000
H        -6.1635948046        1.2825912512        0.0000000000
H        -8.1532988553       -0.2180996455        0.0000000000
H        -7.8615448306       -2.6827232557        0.0000000000
H        -5.5797351426       -3.6708342521        0.0000000000
