 48

C        -6.0902759796        0.3726355718       -0.5222847560
C        -6.5715509952       -0.8965139218       -0.1503351735
C        -5.6811163162       -1.8740692141        0.2099572734
C        -4.7483443408        0.6535772730       -0.4660246935
C        -3.8002311861       -0.3080440709       -0.0295728950
C        -4.2901747961       -1.6050227850        0.2358388861
C        -3.3784662471       -2.6743620984        0.4720485828
C        -2.0437100791       -2.4597685138        0.3543447902
C        -2.3780117729       -0.0544739550        0.0717551086
C        -1.5187266335       -1.1502380515        0.1261970391
C        -1.7836824752        1.2713837313        0.0860126483
C        -0.3914597311        1.4320064283       -0.1023218769
C         0.0857925919        2.7260155179       -0.4078101093
C        -0.7163566202        3.8398015616       -0.3062400679
C        -2.0365567929        3.6959540905        0.1342704672
C        -2.5544072805        2.4333773336        0.3128106855
C         0.4990971119        0.2866405085       -0.0132646217
C        -0.0837781689       -0.9850518201       -0.0020375465
C         0.7353960377       -2.1365765684       -0.1535097652
C         2.0887028275       -2.0285663240       -0.2662275050
C         1.9327117315        0.3775414433        0.0932360787
C         2.7190084893       -0.7696102235       -0.1039813035
C         3.9658519632        1.6599883368        0.5452925032
C         2.6134586918        1.5794616061        0.4851492015
C         4.7822680336        0.5341782451        0.2117012064
C         4.1613001212       -0.6867977963       -0.0992983430
C         4.9736247314       -1.8050926511       -0.3995599711
C         6.3436480235       -1.6971070863       -0.3985421539
C         6.9592882441       -0.4699399057       -0.0919084363
C         6.1922409405        0.6294931434        0.2114337264
H        -6.7981899986        1.1347460384       -0.8648519940
H        -7.6475299115       -1.0963054729       -0.1716303271
H        -6.0307452517       -2.8801180269        0.4691314286
H        -4.4052864266        1.6462879729       -0.7871237595
H        -3.7736334928       -3.6692012465        0.7073452420
H        -1.3425288753       -3.3006700924        0.4605843153
H         1.1258546754        2.8555300208       -0.7365442181
H        -0.3234606810        4.8324649986       -0.5482230579
H        -2.6547220076        4.5809740442        0.3157689542
H        -3.5978998776        2.3347445832        0.6415643089
H         0.2619620535       -3.1283456227       -0.2009960479
H         2.7167205717       -2.9144284119       -0.4463800720
H         4.4597010662        2.5871966329        0.8585845297
H         2.0173157456        2.4565123364        0.7716615877
H         4.4844991661       -2.7626444959       -0.6341041671
H         6.9658519880       -2.5660803428       -0.6363582774
H         8.0518406725       -0.3995256788       -0.0957735219
H         6.6624218570        1.5888526771        0.4552566721
