 46

C         6.4562953474       -0.2632437370        0.0000000000
C         6.9143880377        1.0363360228        0.0000000000
C         6.0037665723        2.1033505888        0.0000000000
C         4.6480409456        1.8578518823        0.0000000000
C         5.0721002286       -0.5293130787        0.0000000000
C         4.1563296990        0.5366188576        0.0000000000
C         3.2622179769       -2.1446683160        0.0000000000
C         4.5884754030       -1.8837832556        0.0000000000
C         2.2872277480       -1.0857730071        0.0000000000
C         2.7311670030        0.2589278597        0.0000000000
C         1.8004994100        1.3007765941        0.0000000000
C         0.4286138493        1.0419713487        0.0000000000
C        -0.5262476151        2.1071219804        0.0000000000
C        -1.8703783308        1.8472797066        0.0000000000
C        -2.8543573472        2.9122117141        0.0000000000
C        -4.1757395032        2.6497510634        0.0000000000
C        -4.6759667986        1.2901132386        0.0000000000
C        -6.0306367559        1.0122613980        0.0000000000
C        -6.4814068519       -0.3194758889        0.0000000000
C        -5.5900284725       -1.3656793081        0.0000000000
C        -2.3421915228        0.4880263379        0.0000000000
C        -3.7378737048        0.2184772979        0.0000000000
C        -4.1956944367       -1.1182007382        0.0000000000
C        -3.2542704638       -2.1803541945        0.0000000000
C        -0.0235182606       -0.3035339813        0.0000000000
C        -1.4277546026       -0.5706769278        0.0000000000
C        -1.9010165938       -1.9212007778        0.0000000000
C        -0.9231794133       -2.9849475116        0.0000000000
C         0.4000625186       -2.7189933925        0.0000000000
C         0.9049026209       -1.3653906465        0.0000000000
H         7.1626859071       -1.1011896201        0.0000000000
H         7.9895085891        1.2433036071        0.0000000000
H         6.3771025218        3.1326092928        0.0000000000
H         3.9253513373        2.6881149068        0.0000000000
H         2.8864611412       -3.1794486246        0.0000000000
H         5.3239791627       -2.6964728883        0.0000000000
H         2.1649865459        2.3408682088        0.0000000000
H        -0.1575422456        3.1402994000        0.0000000000
H        -2.4840565314        3.9440208992        0.0000000000
H        -4.9128583645        3.4611208848        0.0000000000
H        -6.7607359154        1.8294579303        0.0000000000
H        -7.5588944089       -0.5157745376        0.0000000000
H        -5.9464051527       -2.4019896932        0.0000000000
H        -3.6207559835       -3.2142558428        0.0000000000
H        -1.2905084000       -4.0177265012        0.0000000000
H         1.1425765564       -3.5318038416        0.0000000000
