 48

C         6.4588949351        1.3064878998       -0.5563959863
C         6.9883412803        0.0404168376       -0.1811160454
C         6.1565822728       -0.9880435784        0.1442370855
C         5.1128058790        1.5131181091       -0.5878564613
C         4.2106367263        0.4584686785       -0.2410882084
C         4.7389834819       -0.8053225191        0.1149470700
C         3.8524284306       -1.8522692735        0.3959599536
C         2.8222693598        0.6581903347       -0.2428412683
C         1.9303411148       -0.3518678268        0.1115764277
C         2.4767006244       -1.6461404321        0.3622476106
C         1.5929192563       -2.7685840112        0.5013757711
C         0.2661993508       -2.6131674058        0.3043733768
C         0.4824256344       -0.1783315934        0.1513598143
C        -0.3165510325       -1.3140163252        0.0999552795
C        -0.1764881013        1.1105421290        0.2067027348
C        -1.5667146637        1.2115348058       -0.0343710778
C        -2.1001963507        2.4996868431       -0.2785351178
C        -1.3644728144        3.6417779175       -0.0740546306
C        -0.0533658805        3.5377396942        0.4110327666
C         0.5237439429        2.2969880957        0.5322245295
C        -2.3921622452        0.0208431185       -0.0628574199
C        -1.7453970303       -1.2153385250       -0.0943299954
C        -2.4912283767       -2.4049560101       -0.3698012510
C        -3.8341623916       -2.3692005673       -0.5534492893
C        -3.8413118500        0.0305638454       -0.0295356830
C        -4.5463249799       -1.1519011441       -0.3398906880
C        -5.9617225692       -1.1621461035       -0.3805728375
C        -6.6750607931       -0.0406128674       -0.0433613952
C        -5.9886934899        1.1146369531        0.3721975909
C        -4.6161083100        1.1450860105        0.3813795918
H         7.1541999384        2.1106584206       -0.8185851984
H         8.0751646990       -0.0907335692       -0.1608018615
H         6.5528331698       -1.9684990629        0.4312075952
H         4.6978201064        2.4856857400       -0.8758866820
H         4.2501238597       -2.8493779184        0.6231204614
H         2.4511390290        1.6492752967       -0.5415543590
H         2.0231126403       -3.7513027349        0.7263337808
H        -0.4009430764       -3.4872837301        0.3340410048
H        -3.1307672442        2.5960170615       -0.6464344666
H        -1.7990411818        4.6273241214       -0.2694733780
H         0.5066992546        4.4412804543        0.6723200679
H         1.5585699844        2.2299591573        0.8950044422
H        -1.9505691978       -3.3587741476       -0.4588246248
H        -4.3933386227       -3.2716098940       -0.8258622372
H        -6.4769759413       -2.0846024269       -0.6723437669
H        -7.7692129811       -0.0405123296       -0.0740256483
H        -6.5604720960        1.9911584499        0.6948145549
H        -4.1133609966        2.0554419149        0.7346213192
