 48

C         4.6050209821       -3.3860079708        0.0000000000
C         4.9294892186       -2.0426206440        0.0000000000
C         2.2669403349       -2.8226561678        0.0000000000
C         3.2647764976       -3.7787530491        0.0000000000
C         2.5793093762       -1.4525998576        0.0000000000
C         3.9274473879       -1.0575529209        0.0000000000
C         3.2609287417        1.3310095861        0.0000000000
C         4.2739803427        0.3576977584        0.0000000000
C         5.6178218005        0.7682188248        0.0000000000
C         5.9508495104        2.1095208687        0.0000000000
C         4.9437261217        3.0771059502        0.0000000000
C         3.6169598297        2.6903428526        0.0000000000
C         1.5220563627       -0.4492304089        0.0000000000
C         1.8596261209        0.9298982367        0.0000000000
C         0.8449582487        1.8774126608        0.0000000000
C         0.1854493835       -0.8229016553        0.0000000000
C        -0.8469019994        0.1295542632        0.0000000000
C        -0.5074156311        1.4987548561        0.0000000000
C        -1.5473272715        2.4844899016        0.0000000000
C        -2.8512052384        2.1111726496        0.0000000000
C        -2.2383985248       -0.2547830500        0.0000000000
C        -3.2273036588        0.7286441128        0.0000000000
C        -3.9198185191       -2.0057718084        0.0000000000
C        -2.6127522302       -1.6336863642        0.0000000000
C        -4.9546196095       -1.0203005555        0.0000000000
C        -4.6149903934        0.3455516810        0.0000000000
C        -5.6544268813        1.3078257440        0.0000000000
C        -6.9700290012        0.9178490237        0.0000000000
C        -7.3057569765       -0.4505994651        0.0000000000
C        -6.3178605358       -1.4033754134        0.0000000000
H         5.3959537988       -4.1429629173        0.0000000000
H         5.9839519887       -1.7266900698        0.0000000000
H         1.2084254436       -3.1251602050        0.0000000000
H         3.0073345399       -4.8428221433        0.0000000000
H         6.4069764128        0.0008019988        0.0000000000
H         7.0020659758        2.4153029004        0.0000000000
H         5.2070294539        4.1397477859        0.0000000000
H         2.8179882454        3.4475830796        0.0000000000
H         1.1066870779        2.9479766616        0.0000000000
H        -0.0829898507       -1.8967470174        0.0000000000
H        -1.2638392427        3.5431462204        0.0000000000
H        -3.6582979701        2.8599891402        0.0000000000
H        -4.2035410862       -3.0644054040        0.0000000000
H        -1.8071644278       -2.3842010874        0.0000000000
H        -5.3794864034        2.3735953987        0.0000000000
H        -7.7692340265        1.6662229624        0.0000000000
H        -8.3605193452       -0.7441869068        0.0000000000
H        -6.5702426411       -2.4698601805        0.0000000000
