 48

C         7.5559401206       -1.5502450447        0.0000000000
C         7.9903317575       -0.1952878965        0.0000000000
C         7.0845998431        0.8217168654        0.0000000000
C         6.2277399614       -1.8512032720        0.0000000000
C         5.2488914683       -0.8081127179        0.0000000000
C         5.6818449427        0.5419487959        0.0000000000
C         4.7308617415        1.5714936856        0.0000000000
C         3.8774116399       -1.0953232925        0.0000000000
C         2.9309148006       -0.0742127924        0.0000000000
C         3.3699941445        1.2791449591        0.0000000000
C         2.3927415313        2.3337925129        0.0000000000
C         1.0693405708        2.0522313303        0.0000000000
C         1.5088378492       -0.3516127164        0.0000000000
C         0.5960058821        0.6961751454        0.0000000000
C        -0.2906795826       -1.9835820191        0.0000000000
C         1.0367436633       -1.7031920068        0.0000000000
C        -1.2589075162       -0.9279120434        0.0000000000
C        -0.8202831516        0.4177519245        0.0000000000
C        -1.7770271869        1.4437426351        0.0000000000
C        -2.6311371606       -1.2143677173        0.0000000000
C        -3.5751792729       -0.1935956874        0.0000000000
C        -3.1375129782        1.1571283989        0.0000000000
C        -4.1136844699        2.2195222518        0.0000000000
C        -5.4366453785        1.9494742386        0.0000000000
C        -4.9997299782       -0.4751807187        0.0000000000
C        -5.9164118539        0.5899464552        0.0000000000
C        -7.2980315354        0.3192386292        0.0000000000
C        -7.7521150848       -0.9834530740        0.0000000000
C        -6.8398811416       -2.0473298936        0.0000000000
C        -5.4836839536       -1.7971601624        0.0000000000
H         8.3095472367       -2.3445485670        0.0000000000
H         9.0652846217        0.0128106944        0.0000000000
H         7.4096743625        1.8682322316        0.0000000000
H         5.8840692924       -2.8917290098        0.0000000000
H         5.0657591472        2.6162308175        0.0000000000
H         3.5377101989       -2.1434737575        0.0000000000
H         2.7488056916        3.3704595600        0.0000000000
H         0.3159986924        2.8550054060        0.0000000000
H        -0.6476250336       -3.0198135935        0.0000000000
H         1.7875313874       -2.5084178071        0.0000000000
H        -1.4320480836        2.4902849688        0.0000000000
H        -2.9771162932       -2.2608378151        0.0000000000
H        -3.7478361281        3.2528098013        0.0000000000
H        -6.1785627646        2.7563811163        0.0000000000
H        -8.0084495105        1.1537773242        0.0000000000
H        -8.8268246653       -1.1925946520        0.0000000000
H        -7.2095330930       -3.0778681353        0.0000000000
H        -4.7545360948       -2.6219627405        0.0000000000
