 48

C        -2.0519127302        1.9220976273        0.0000000000
C        -3.4344740019        1.5386601086        0.0000000000
C        -4.4598582678        2.4910269681        0.0000000000
C        -5.7888700666        2.0869192757        0.0000000000
C        -6.1220921898        0.7371799802        0.0000000000
C        -2.0388712097       -3.1461394282        0.0000000000
C        -0.7123791079       -2.7501268201        0.0000000000
C        -3.0595646094       -2.1892661449        0.0000000000
C        -2.7211353209       -0.8176972395        0.0000000000
C        -3.7632135212        0.1647924029        0.0000000000
C        -5.1186196886       -0.2360573491        0.0000000000
C        -5.4300497385       -1.6424987087        0.0000000000
C        -4.4477982310       -2.5725938743        0.0000000000
C        -1.3642723244       -0.4164316862        0.0000000000
C        -0.3561377127       -1.3951725827        0.0000000000
C        -1.0502915337        0.9958578583        0.0000000000
C         0.3561374439        1.3952697799        0.0000000000
C         2.0389758487        3.1461719571        0.0000000000
C         0.7124432124        2.7502012444        0.0000000000
C         3.0596170504        2.1892852163        0.0000000000
C         5.4300923413        1.6424688177        0.0000000000
C         4.4478779626        2.5725765522        0.0000000000
C         5.1186281807        0.2360072979        0.0000000000
C         4.4597946845       -2.4911008621        0.0000000000
C         5.7888030643       -2.0870306167        0.0000000000
C         6.1220738650       -0.7372444921        0.0000000000
C         3.4344063509       -1.5386680658        0.0000000000
C         3.7631780213       -0.1648134731        0.0000000000
C         2.7211341203        0.8177160302        0.0000000000
C         1.3642714383        0.4164837961        0.0000000000
C         1.0502713204       -0.9957849474        0.0000000000
C         2.0518368671       -1.9220756195        0.0000000000
H        -1.8065786156        2.9966237680        0.0000000000
H        -4.2092833259        3.5577922848        0.0000000000
H        -6.5838218945        2.8402857693        0.0000000000
H        -7.1743842515        0.4312640803        0.0000000000
H        -2.2937149990       -4.2120440969        0.0000000000
H         0.0881357920       -3.5063703824        0.0000000000
H        -6.4861937393       -1.9354839398        0.0000000000
H        -4.6843520835       -3.6428958452        0.0000000000
H         2.2937686246        4.2120864196        0.0000000000
H        -0.0879989241        3.5065180167        0.0000000000
H         6.4862508454        1.9354017459        0.0000000000
H         4.6844146095        3.6428809391        0.0000000000
H         4.2091048765       -3.5578409402        0.0000000000
H         6.5838074587       -2.8403418774        0.0000000000
H         7.1744004291       -0.4314441230        0.0000000000
H         1.8064271250       -2.9965866386        0.0000000000
