 48

C         2.3756143719       -4.0928395612       -0.2617912365
C         1.3519992560       -3.1219622999       -0.2885738904
C         1.6633141836       -1.7606462458       -0.1069337022
C         3.0221278093       -1.3804776760        0.0667801288
C         4.0060402817       -2.3567031197        0.0972687060
C         3.6824445403       -3.7108811672       -0.0614952933
C         0.6096210038       -0.7865160146       -0.0974411840
C        -0.7315083267       -1.1795602310       -0.1911540088
C        -0.9953913547       -2.5572409712       -0.4774282622
C        -0.0077478556       -3.4892268279       -0.5204376516
C         0.9557899998        0.6008544248       -0.0191257734
C        -0.0509242249        1.5639740077       -0.1088997460
C        -1.4244542670        1.1613437737       -0.1526716802
C        -1.7828613250       -0.1947505366       -0.0714059118
C        -2.4294070314        2.1789761222       -0.2740205575
C        -2.0337167090        3.5699528855       -0.3790956121
C        -0.7444263966        3.9400917542       -0.2938235576
C         0.3034189965        2.9540613131       -0.1247273294
C        -3.1770172938       -0.5126703468        0.1325049536
C        -4.1499058255        0.4957085974       -0.0471083617
C        -3.7560876945        1.8383448171       -0.2902841400
C        -5.5313478175        0.1939200035        0.0762586482
C        -5.9394766479       -1.0585581565        0.4505847211
C        -4.9753146226       -2.0451322889        0.7358701000
C        -3.6390838276       -1.7773389727        0.5828160251
C         2.3213836079        0.9994290580        0.1087815691
C         2.6459752675        2.3716152889        0.1522627337
C         1.6132927214        3.3398191085        0.0156098189
C         3.3609576842        0.0325287218        0.1885754815
C         4.6699995986        0.4518299154        0.3522999125
C         4.9838932811        1.8183247745        0.4238782782
C         3.9947158442        2.7661599668        0.3175454601
H        -5.3040334259       -3.0290104347        1.0868455183
H        -7.0033267829       -1.2966356530        0.5493721946
H        -6.2648601062        0.9849359875       -0.1185024861
H        -2.9106374030       -2.5607320781        0.8321832627
H        -4.5296705985        2.6013286080       -0.4435205960
H        -2.8278822215        4.3132574426       -0.5167408333
H        -0.4493943453        4.9941234260       -0.3531321602
H         1.8831892599        4.4032596903        0.0201615935
H         4.2369888265        3.8340942293        0.3591717268
H         6.0279387825        2.1200703499        0.5580661949
H         5.4702424652       -0.3013634916        0.4192965077
H        -0.2363285152       -4.5384286380       -0.7408714439
H        -2.0287147244       -2.8674208149       -0.6848961331
H         5.0547287503       -2.0544078688        0.2432674322
H         4.4801415023       -4.4603427808       -0.0308719077
H         2.1164929148       -5.1483702277       -0.4013441705
