 48

C         2.7205089464        1.7809184293        0.0000000000
C         2.1377957557       -0.9910509223        0.0000000000
C         1.8293897948       -2.3432165658        0.0000000000
C        -3.4112727022        2.4050363847        0.0000000000
C        -2.0847062922        2.8412691822        0.0000000000
C         0.5837089754        3.7088828801        0.0000000000
C        -0.4747106487        4.6527779199        0.0000000000
C        -1.7714899573        4.2377693505        0.0000000000
C        -1.0267871690        1.8921940232        0.0000000000
C        -1.3226128603        0.5175797962        0.0000000000
C        -0.2439453131       -0.4529731891        0.0000000000
C         1.0887476058       -0.0282582741        0.0000000000
C         1.4175267771        1.3812364331        0.0000000000
C         0.3308376916        2.3590039831        0.0000000000
C         0.4944196868       -2.7841898319        0.0000000000
C        -0.5543443814       -1.8346611187        0.0000000000
C        -1.9099052738       -2.2939556076        0.0000000000
C        -2.1701301036       -3.6460397753        0.0000000000
C        -1.1180960736       -4.5896577804        0.0000000000
C         0.1833532635       -4.1751871730        0.0000000000
C        -2.6615458954        0.0835318078        0.0000000000
C        -3.7120031984        1.0399854462        0.0000000000
C        -5.0694262323        0.5887145472        0.0000000000
C        -5.3536261906       -0.7435872083        0.0000000000
C        -4.3093613333       -1.7019352843        0.0000000000
C        -2.9919994473       -1.3134634644        0.0000000000
C         3.7989321825        0.8341744297        0.0000000000
C         3.5196863814       -0.5426199002        0.0000000000
C         4.5899760359       -1.4572537235        0.0000000000
C         5.8950988726       -1.0112941394        0.0000000000
C         6.1704236343        0.3630077000        0.0000000000
C         5.1369516311        1.2760218660        0.0000000000
H         2.9640453956        2.8561408956        0.0000000000
H         2.6477916292       -3.0814838131        0.0000000000
H        -4.2254714437        3.1404263530        0.0000000000
H         1.6248944189        4.0668175748        0.0000000000
H        -0.2274660724        5.7195029754        0.0000000000
H        -2.5961681568        4.9595140980        0.0000000000
H        -3.2145487366       -3.9947527734        0.0000000000
H        -1.3645693217       -5.6565567405        0.0000000000
H         1.0056330054       -4.8995416121        0.0000000000
H        -5.8702549159        1.3368532798        0.0000000000
H        -6.3906061014       -1.0952702028        0.0000000000
H        -4.5577288047       -2.7746242891        0.0000000000
H         4.3620599003       -2.5342073831        0.0000000000
H         6.7218320882       -1.7291149188        0.0000000000
H         7.2100555862        0.7064388673        0.0000000000
H         5.3468819058        2.3516507606        0.0000000000
