 50

C         1.2373951312       -1.4341744792       -0.6454771551
C         0.1509943952       -3.9283234418       -1.4185757584
C         1.4409149179       -3.6116382607       -1.7148311384
C         1.9964894613       -2.3728783643       -1.2985226574
C        -0.1721426837       -1.6796280489       -0.4833190140
C        -1.0377162724       -0.6592476000       -0.0466924032
C        -1.9993879375       -3.2837660906       -0.4023101592
C        -0.6871860310       -2.9738228556       -0.7601575105
C         1.7741869340       -0.1867457408       -0.0967456358
C         2.7136735063        2.3985321843        0.5526238957
C         0.8615757277        0.9018124949        0.0014284969
C         1.3561663355        2.2153568912        0.2291565699
C         0.4891988738        3.3201225236        0.1097142516
C        -0.5415527457        0.7109158241       -0.1555187988
C         3.5657224773        1.3106408492        0.6411004690
C         3.1060156794       -0.0033188694        0.3061473578
C         4.0540656721       -1.0759064143        0.4401057976
C         5.3308608976       -0.8588941272        0.8462785455
C         5.7862461394        0.4593173697        1.1461454172
C         4.9315770384        1.5069995149        1.0482585150
C        -1.3489723702        1.8170842007       -0.4552809744
C        -0.8220632737        3.1371494092       -0.2952246585
C        -1.6692496093        4.2708650603       -0.5529020245
C        -2.9334662435        4.1015184171       -1.0130599876
C        -3.4387897143        2.7878279899       -1.2525177776
C        -2.6821170607        1.6943544159       -0.9799852155
C        -2.7771033482       -2.3473079156        0.2851718892
C        -2.2958337096       -1.0233831716        0.4848381033
C        -3.0858933297       -0.1371506117        1.2853390051
C        -4.2865178079       -0.5284735207        1.7941909793
C        -4.7964454231       -1.8291023806        1.5270844320
C        -4.0641100847       -2.7127640293        0.7968741865
H        -0.2708727041       -4.9048854443       -1.6809276930
H         2.0830466671       -4.3187919426       -2.2503951819
H         3.0665526832       -2.1986394866       -1.4772233787
H        -2.4100284621       -4.2748964729       -0.6306541656
H         3.0889051351        3.4121486023        0.7418056367
H         0.8722740695        4.3288256548        0.3080056978
H         3.7238135773       -2.0990383021        0.2118694842
H         6.0320038744       -1.6929875359        0.9550229552
H         6.8257381321        0.6018668869        1.4581890233
H         5.2593299640        2.5267534328        1.2813891827
H        -1.2589994446        5.2722376280       -0.3790761416
H        -3.5802448320        4.9602735023       -1.2195478812
H        -4.4471412179        2.6817079802       -1.6659339853
H        -2.6914427817        0.8658544958        1.4940202685
H        -3.0691364498        0.6862712414       -1.1785540907
H        -4.8751801532        0.1512698557        2.4189850871
H        -5.7765855916       -2.1065647981        1.9281492303
H        -4.4358744059       -3.7243670469        0.5976886805
