 50

C         2.8741526125       -1.6589561105        0.0000000000
C         3.6077828341       -2.8413068081        0.0000000000
C         5.0036397580       -2.8156481687        0.0000000000
C         5.6829939837       -1.6123052657        0.0000000000
C         3.5610803411       -0.4205102827        0.0000000000
C         4.9710957647       -0.4004300021        0.0000000000
C         5.6574296475        0.8617339798        0.0000000000
C         4.9682395927        2.0286071933        0.0000000000
C         2.8344269865        0.8169466966        0.0000000000
C         3.5326744742        2.0354921613        0.0000000000
C         2.8109731475        3.2482685342        0.0000000000
C         1.4377547775        3.2389562947        0.0000000000
C         1.4138227751        0.8108064239        0.0000000000
C         0.7150416265        2.0249934858        0.0000000000
C         0.7090532025       -0.4468213943        0.0000000000
C        -0.6773682650       -2.8767297579        0.0000000000
C         0.7058348733       -2.8698766425        0.0000000000
C         1.4177392040       -1.6648642427        0.0000000000
C        -0.7044660495       -0.4537962376        0.0000000000
C        -1.4010870444       -1.6787735957        0.0000000000
C        -1.4218156048        0.7966875673        0.0000000000
C        -0.7351878549        2.0177968676        0.0000000000
C        -1.4699757961        3.2244946812        0.0000000000
C        -2.8432229149        3.2201102458        0.0000000000
C        -2.8424120051        0.7886619989        0.0000000000
C        -3.5528063010        2.0001893360        0.0000000000
C        -4.9882434955        1.9789552473        0.0000000000
C        -5.6657687763        0.8052827266        0.0000000000
C        -3.5567578597       -0.4559463918        0.0000000000
C        -4.9669135344       -0.4500096208        0.0000000000
C        -5.6665740739       -1.6689871138        0.0000000000
C        -4.9752153389       -2.8654377316        0.0000000000
C        -3.5791715679       -2.8771401895        0.0000000000
C        -2.8574966827       -1.6874697909        0.0000000000
H         3.0711879440       -3.8026120778        0.0000000000
H         5.5591725840       -3.7593646385        0.0000000000
H         6.7787113523       -1.5939207172        0.0000000000
H         6.7534970841        0.8543726959        0.0000000000
H         5.4906531233        2.9921835750        0.0000000000
H         3.3592302252        4.1972872772        0.0000000000
H         0.8720745477        4.1835575686        0.0000000000
H        -1.2297001991       -3.8293420298        0.0000000000
H         1.2676303012       -3.8169062164        0.0000000000
H        -0.9137829353        4.1747113579        0.0000000000
H        -3.4008603169        4.1636483836        0.0000000000
H        -5.5202469595        2.9372701547        0.0000000000
H        -6.7617107843        0.7870475095        0.0000000000
H        -6.7624188132       -1.6617367610        0.0000000000
H        -5.5214777602       -3.8145368101        0.0000000000
H        -3.0330582812       -3.8330956535        0.0000000000
