 52

C         7.3542118128       -1.4048638680        0.0000000000
C         7.8675033079       -0.0871988416        0.0000000000
C         7.0168548131        0.9841277670        0.0000000000
C         6.0030892896       -1.6196955141        0.0000000000
C         5.0935327804       -0.5276198377        0.0000000000
C         5.6080177867        0.7863069760        0.0000000000
C         4.7240218008        1.8929670727        0.0000000000
C         3.3594215008        1.7018818603        0.0000000000
C         2.4482151312        2.8221417396        0.0000000000
C         1.1127188471        2.6329338131        0.0000000000
C         0.5343652576        1.3106652853        0.0000000000
C         1.3943691028        0.1906389466        0.0000000000
C         0.8623522649       -1.1218420946        0.0000000000
C         1.7722727652       -2.2318596782        0.0000000000
C         3.1141223536       -2.0444632582        0.0000000000
C         3.6781277369       -0.7266822765        0.0000000000
C         2.8186643186        0.3778980808        0.0000000000
C        -0.8623057394        1.1218943153        0.0000000000
C        -1.7723318615        2.2319092302        0.0000000000
C        -3.1141543725        2.0444833311        0.0000000000
C        -3.6781656964        0.7266803186        0.0000000000
C        -4.7240540098       -1.8930027288        0.0000000000
C        -2.8186638689       -0.3779226743        0.0000000000
C        -3.3593733094       -1.7019088205        0.0000000000
C        -2.4481688232       -2.8221578586        0.0000000000
C        -1.1125944308       -2.6328914444        0.0000000000
C        -0.5343475422       -1.3106033174        0.0000000000
C        -1.3943556554       -0.1906251950        0.0000000000
C        -5.6080305067       -0.7863512463        0.0000000000
C        -5.0935102879        0.5275924982        0.0000000000
C        -6.0031002372        1.6197015776        0.0000000000
C        -7.3542215154        1.4048795425        0.0000000000
C        -7.8675635571        0.0871613080        0.0000000000
C        -7.0169391244       -0.9841652720        0.0000000000
H         8.0513896974       -2.2490752081        0.0000000000
H         8.9521297029        0.0623582136        0.0000000000
H         7.4060025709        2.0086999673        0.0000000000
H         5.5880110691       -2.6391992016        0.0000000000
H         5.1414347820        2.9076133954        0.0000000000
H         2.8758668476        3.8314556230        0.0000000000
H         0.4183264177        3.4872295116        0.0000000000
H         1.3423852512       -3.2452270794        0.0000000000
H         3.8106614447       -2.8971175240        0.0000000000
H        -1.3424465451        3.2452773179        0.0000000000
H        -3.8107445505        2.8970980768        0.0000000000
H        -5.1413040479       -2.9077175453        0.0000000000
H        -2.8757402751       -3.8315104254        0.0000000000
H        -0.4181444609       -3.4871462582        0.0000000000
H        -5.5879303639        2.6391734387        0.0000000000
H        -8.0515064789        2.2490088539        0.0000000000
H        -8.9522099379       -0.0622488329        0.0000000000
H        -7.4059469349       -2.0087882528        0.0000000000
