 52

C        -3.9445099424        3.5008262612        0.0000000000
C        -5.3119853332        3.3683177470        0.0000000000
C        -5.8991353647        2.0892349512        0.0000000000
C        -5.1097367480        0.9647235299        0.0000000000
C        -3.1166433946        2.3532903924        0.0000000000
C        -3.6999561831        1.0744456833        0.0000000000
C        -1.6954021558        2.4808485465        0.0000000000
C        -2.8456891278       -0.0871630839        0.0000000000
C        -3.4025968913       -1.3909391648        0.0000000000
C        -2.5979628614       -2.4947079514        0.0000000000
C        -1.1858183917       -2.3664678134        0.0000000000
C        -0.6136894123       -1.0911457190        0.0000000000
C        -0.8774623478        1.3836654089        0.0000000000
C        -1.4506202293        0.0633021849        0.0000000000
C         1.0557748195       -3.3998809529        0.0000000000
C        -0.3417936864       -3.5435878751        0.0000000000
C        -0.8987067028       -4.8398011626        0.0000000000
C        -0.0922822437       -5.9560297324        0.0000000000
C         1.3023955569       -5.8126247854        0.0000000000
C         1.8648032892       -4.5556487185        0.0000000000
C         0.5775226734        1.5332889118        0.0000000000
C         1.1550550748        2.7739659634        0.0000000000
C         2.8038720280        0.4937766168        0.0000000000
C         1.4073830995        0.3571823446        0.0000000000
C         0.8229054817       -0.9434288698        0.0000000000
C         1.6426049850       -2.0756333773        0.0000000000
C         3.0512920381       -1.9137990256        0.0000000000
C         3.6144617340       -0.6693667956        0.0000000000
C         2.5725214245        2.9383117290        0.0000000000
C         3.4038742133        1.8049362148        0.0000000000
C         4.8064738177        1.9843757403        0.0000000000
C         5.3505354196        3.2460115778        0.0000000000
C         4.5153810503        4.3788308870        0.0000000000
C         3.1495376741        4.2302871136        0.0000000000
H        -3.4800250478        4.4934190258        0.0000000000
H        -5.9549073324        4.2545521228        0.0000000000
H        -6.9902625802        1.9986856708        0.0000000000
H        -5.5564960073       -0.0412142102        0.0000000000
H        -1.2576227635        3.4924507188        0.0000000000
H        -4.4991290955       -1.4895812077        0.0000000000
H        -3.0335580931       -3.5055825671        0.0000000000
H        -1.9943901208       -4.9440056773        0.0000000000
H        -0.5347699163       -6.9574384938        0.0000000000
H         1.9394044108       -6.7030379642        0.0000000000
H         2.9587654752       -4.4347032093        0.0000000000
H         0.5206111282        3.6753378411        0.0000000000
H         3.6834947718       -2.8148732630        0.0000000000
H         4.7081157418       -0.5427424483        0.0000000000
H         5.4485505943        1.0903727751        0.0000000000
H         6.4372623527        3.3793698524        0.0000000000
H         4.9644568749        5.3773791071        0.0000000000
H         2.4928148813        5.1076138912        0.0000000000
