 48

C        -2.4110567315        2.8535518202        0.0000000000
C        -1.2280326401        3.5339477378        0.0000000000
C         0.0079208448        2.8312024348        0.0000000000
C         0.0039887932        1.4258103475        0.0000000000
C         2.4269708039        2.8400384803        0.0000000000
C         1.2477706053        3.5270429413        0.0000000000
C        -1.2392248466        0.7226812328        0.0000000000
C        -2.4420112820        1.4313723187        0.0000000000
C        -1.2432565850       -0.7157703125        0.0000000000
C        -2.4500050209       -1.4177138632        0.0000000000
C        -2.4270234232       -2.8400538147        0.0000000000
C        -1.2478190187       -3.5270766775        0.0000000000
C        -0.0039970434       -1.4258516472        0.0000000000
C        -0.0079379791       -2.8312541031        0.0000000000
C         1.2280095418       -3.5340209005        0.0000000000
C         2.4110671858       -2.8536132458        0.0000000000
C         1.2392209178       -0.7227147164        0.0000000000
C         2.4420228109       -1.4314103772        0.0000000000
C         2.4499690258        1.4177032025        0.0000000000
C         1.2432364874        0.7157439806        0.0000000000
C        -3.7013241026       -0.6930484467        0.0000000000
C        -3.6973723563        0.7137465393        0.0000000000
C        -4.9295380439        1.4036909247        0.0000000000
C        -6.1227964812        0.7189854060        0.0000000000
C        -6.1267421436       -0.6846387584        0.0000000000
C        -4.9373526432       -1.3760478934        0.0000000000
C         3.7013086626        0.6930613356        0.0000000000
C         3.6974060183       -0.7137623866        0.0000000000
C         4.9296197599       -1.4036537332        0.0000000000
C         6.1228881779       -0.7188708707        0.0000000000
C         6.1267770141        0.6847661082        0.0000000000
C         4.9373146517        1.3761380432        0.0000000000
H        -3.3708898801        3.3926954481        0.0000000000
H        -1.2127025012        4.6298293075        0.0000000000
H         3.3898231830        3.3737771360        0.0000000000
H         1.2385247865        4.6229920786        0.0000000000
H        -3.3898614219       -3.3738153553        0.0000000000
H        -1.2386235501       -4.6230292786        0.0000000000
H         1.2126468365       -4.6299057113        0.0000000000
H         3.3708957274       -3.3927684582        0.0000000000
H        -4.9152128127        2.5043529851        0.0000000000
H        -7.0727931717        1.2631508641        0.0000000000
H        -7.0797810827       -1.2234584701        0.0000000000
H        -4.9292267090       -2.4767729700        0.0000000000
H         4.9153767715       -2.5043186241        0.0000000000
H         7.0729028985       -1.2630179234        0.0000000000
H         7.0797886105        1.2236475836        0.0000000000
H         4.9291208822        2.4768663522        0.0000000000
