 48

C         5.2816664039        1.5935402542        0.0000000000
C         4.5417521525        2.7548012076        0.0000000000
C         3.1409473344        2.7064222769        0.0000000000
C         4.6323081381        0.3408208612        0.0000000000
C         4.7509661660       -2.0846828988        0.0000000000
C         5.3808258192       -0.8806081796        0.0000000000
C         3.3223660533       -2.1622623617        0.0000000000
C         1.2952952426       -3.4902459804        0.0000000000
C         2.6571465563       -3.4223126087        0.0000000000
C         0.5059719223       -2.3020535634        0.0000000000
C        -0.9087505362       -2.3649286762        0.0000000000
C         0.2519826062        2.5687340006        0.0000000000
C         2.5694759110       -0.9850888985        0.0000000000
C         3.2248954351        0.2888067541        0.0000000000
C         2.4715766785        1.4921393786        0.0000000000
C         1.0110764567        1.4289288226        0.0000000000
C         0.3655232651        0.1432216964        0.0000000000
C         1.1422314416       -1.0499236512        0.0000000000
C        -1.1730618613        2.5108091513        0.0000000000
C        -1.9427383912        3.6934993358        0.0000000000
C        -3.3179770678        3.6228098523        0.0000000000
C        -3.9644670043        2.3804877731        0.0000000000
C        -1.8188023233        1.2570283528        0.0000000000
C        -3.2371188818        1.1991385206        0.0000000000
C        -1.6739417119       -1.2195459441        0.0000000000
C        -1.0342072306        0.0598625696        0.0000000000
C        -3.1326869843       -1.2824498292        0.0000000000
C        -3.8959590203       -0.1021068470        0.0000000000
C        -5.2966065152       -0.1906488763        0.0000000000
C        -5.9305073737       -1.4203523422        0.0000000000
C        -5.1736284416       -2.5924858397        0.0000000000
C        -3.7918990277       -2.5217486940        0.0000000000
H         6.3768882542        1.6298804164        0.0000000000
H         5.0432015479        3.7282996049        0.0000000000
H         2.5572095811        3.6399498843        0.0000000000
H         5.3238133635       -3.0191120262        0.0000000000
H         6.4751638002       -0.8188625582        0.0000000000
H         0.7832273822       -4.4593006000        0.0000000000
H         3.2631382408       -4.3356250190        0.0000000000
H        -1.4023563951       -3.3502489582        0.0000000000
H         0.7473579399        3.5534621657        0.0000000000
H        -1.4344590302        4.6643150820        0.0000000000
H        -3.9175938055        4.5391140871        0.0000000000
H        -5.0643975919        2.3343517679        0.0000000000
H        -5.8851457891        0.7398284564        0.0000000000
H        -7.0239177552       -1.4749490817        0.0000000000
H        -5.6735954851       -3.5664488658        0.0000000000
H        -3.1887635030       -3.4427536248        0.0000000000
