 48

C         5.0836812265        1.6830113336        0.0000000000
C         4.0081741350        2.4933040407        0.0000000000
C         2.6578131583        1.9623316031        0.0000000000
C         1.5629229902        2.7782218279        0.0000000000
C         0.2329804074        2.2363435460        0.0000000000
C        -0.8794223805        3.0628021060        0.0000000000
C        -2.1802511236        2.5189675047        0.0000000000
C        -3.3221664618        3.3683742124        0.0000000000
C        -4.5805662369        2.8329888386        0.0000000000
C        -4.7642910312        1.4339663432        0.0000000000
C         4.9445272679        0.2399596518        0.0000000000
C         4.6151096829       -2.5509879970        0.0000000000
C         5.8691136770       -1.9960503772        0.0000000000
C         6.0415951818       -0.5970580341        0.0000000000
C         3.4619825625       -1.7219584767        0.0000000000
C         3.6308145842       -0.3175489707        0.0000000000
C         2.4945835907        0.5290386355        0.0000000000
C         2.1589180580       -2.2695468025        0.0000000000
C         1.0463466834       -1.4458683070        0.0000000000
C         1.2098972504       -0.0273640434        0.0000000000
C         0.0586699460        0.8189172373        0.0000000000
C        -0.2862673512       -1.9812152195        0.0000000000
C        -1.3863108611       -1.1736210180        0.0000000000
C        -1.2293818234        0.2631903555        0.0000000000
C        -2.3610121812        1.1144721100        0.0000000000
C        -3.6852046205        0.5766194391        0.0000000000
C        -2.7404480498       -1.7257136589        0.0000000000
C        -3.8591013631       -0.8738627731        0.0000000000
C        -5.1449825931       -1.4323496179        0.0000000000
C        -5.3245805976       -2.8057316429        0.0000000000
C        -4.2162071813       -3.6504536276        0.0000000000
C        -2.9393618559       -3.1135773654        0.0000000000
H         6.1002856679        2.0931642723        0.0000000000
H         4.1227458976        3.5835647332        0.0000000000
H         1.6785313728        3.8692157142        0.0000000000
H        -0.7551433497        4.1528746372        0.0000000000
H        -3.1738224405        4.4541977411        0.0000000000
H        -5.4619287454        3.4828774544        0.0000000000
H        -5.7848241070        1.0210338856        0.0000000000
H         4.4848351771       -3.6390949869        0.0000000000
H         6.7561799945       -2.6384175825        0.0000000000
H         7.0550802100       -0.1803041767        0.0000000000
H         2.0379040503       -3.3597669542        0.0000000000
H        -0.4097763758       -3.0764724775        0.0000000000
H        -6.0152720482       -0.7579165639        0.0000000000
H        -6.3350893310       -3.2269363719        0.0000000000
H        -4.3545535218       -4.7364546853        0.0000000000
H        -2.0595039317       -3.7753827558        0.0000000000
