 50

C        -0.1920238003       -1.0605695342       -0.0522245622
C        -0.7679620497       -3.8130709712       -0.3156056336
C        -1.8219842501       -2.8849170895       -0.2317411048
C        -1.5347358678       -1.5110063660       -0.0985629307
C        -4.2054734988       -2.4218797015       -0.1516624617
C        -3.1878141541       -3.3155700116       -0.2652186339
C         0.1173835052        0.3463934664        0.0194525348
C         1.4383428503        0.7905278043        0.0204871825
C        -0.9749433502        1.2807768811        0.0884102558
C        -0.7257359716        2.6533667142        0.1478376054
C        -1.8128606638        3.5576747219        0.3153991391
C        -3.1013333087        3.1137604308        0.3698421309
C        -2.3259575626        0.8160850336        0.1197995515
C        -3.3874314623        1.7259120091        0.2512899264
C        -4.7290117321        1.2487218715        0.2572285742
C        -4.9968123871       -0.0832689658        0.1251478907
C        -3.9379476210       -1.0242875382       -0.0075552934
C        -2.6126932461       -0.5760751884        0.0035725553
C         0.6230640675        3.1273990191       -0.0280225201
C         1.6835953392        2.2070774796       -0.1655934596
C         2.9431597240        2.7213549069       -0.5584085249
C         3.1651070351        4.0706768540       -0.6951890965
C         2.1290437814        4.9845804859       -0.4467664773
C         0.8780052691        4.5150035607       -0.1318895711
C         2.4981150997       -0.1901217652        0.2024684193
C         4.5320298788       -2.1469763057        0.4395640735
C         4.8034122493       -0.8081306009        0.6937486172
C         3.8066300692        0.1485182546        0.5800829183
C         3.2285161671       -2.5383311941        0.1376464184
C         2.1995953364       -1.5681954118        0.0622704622
C         0.8448197495       -2.0026483179       -0.0978020647
C         0.5482309218       -3.3877550540       -0.2374444443
C         1.6376714326       -4.3347592863       -0.2647057849
C         2.9110424394       -3.9302438540       -0.0774849995
H        -0.9967793891       -4.8800844718       -0.4278447919
H        -5.2499104989       -2.7537820723       -0.1692167904
H        -3.3917327499       -4.3865188803       -0.3791994611
H        -1.5871590725        4.6323945028        0.3897738727
H        -3.9322084879        3.8171460562        0.4962360087
H        -5.5431487375        1.9746306433        0.3651200954
H        -6.0299796696       -0.4490563250        0.1212598962
H         3.7675558860        2.0269322484       -0.7707620641
H         4.1493683273        4.4396208492       -1.0019975389
H         2.3192939245        6.0597477973       -0.5242023817
H         0.0450942963        5.2158695374        0.0313136115
H         5.3310935116       -2.8945476034        0.4965814973
H         5.8147638576       -0.5046048496        0.9847827663
H         4.0618642580        1.1951634407        0.7953437885
H         1.3960324047       -5.3913544968       -0.4277687474
H         3.7388614695       -4.6488419152       -0.0790881590
