 52

C         4.5664902958       -3.0870089644       -0.5396240752
C         6.0174568328       -1.2621208720        0.0808223775
C         5.8416693738       -2.5894782702       -0.2596112680
C         3.4586558705       -2.2502609737       -0.4710394590
C         2.1312504099       -2.7268727489       -0.7723820415
C         1.0568620168       -1.9231509587       -0.6440353925
C         1.1551545340       -0.5437846887       -0.2145670656
C         3.6175286015       -0.8882717597       -0.1145477901
C         2.4782900536       -0.0194173279       -0.0254674201
C         2.6756018338        1.3307648351        0.2765132125
C         3.9982068178        1.8113433722        0.5445402672
C         5.0736776862        0.9859068758        0.4951900749
C         4.9121215611       -0.3952955822        0.1541200987
C         1.5519844350        2.2167195510        0.2779066706
C        -0.6189732132        3.9671720286        0.1042957643
C         0.6677802131        4.4723267186        0.3523044083
C         1.7325869081        3.6140101535        0.4338908032
C         0.2538880829        1.6938221211        0.0953786263
C         0.0474048356        0.2791425672       -0.0175377763
C        -0.8354899006        2.6082139902       -0.0181759222
C        -2.1792416106        2.0989571956       -0.2764921975
C        -4.7842646887        1.1333142879       -0.5739592755
C        -4.5227813530        2.4732203465       -0.7562115625
C        -3.2240503930        2.9607653375       -0.5807962245
C        -2.4209983516        0.7093012300       -0.1636860196
C        -1.3324182625       -0.2105591654        0.0813594279
C        -1.6353510063       -1.4934861289        0.4432377299
C        -3.7455850013        0.2382780196       -0.2479496936
C        -4.0325582220       -1.1474265134        0.0450030520
C        -2.9792070378       -1.9875659862        0.4396633091
C        -3.2519513289       -3.3273890740        0.7956316616
C        -4.5383956069       -3.8122142240        0.7370571756
C        -5.5903594102       -2.9782696328        0.3217807496
C        -5.3427549046       -1.6676402558       -0.0165327060
H         4.4399306956       -4.1397967815       -0.8162054713
H         7.0193373076       -0.8734620179        0.2957923696
H         6.7057228532       -3.2600364091       -0.3144534162
H         2.0237717163       -3.7616913392       -1.1179426610
H         0.0595385373       -2.3150730209       -0.8892190107
H         4.1164861035        2.8776000731        0.7910168943
H         6.0821409246        1.3582487757        0.7082394291
H        -1.4664180214        4.6618766860       -0.0023249726
H         0.8096252018        5.5517074487        0.4681072608
H         2.7494670365        3.9951021223        0.6126796493
H        -5.8073513122        0.7378184101       -0.6678864394
H        -5.3300887410        3.1647553484       -1.0182570288
H        -3.0241867499        4.0398565362       -0.6662589921
H        -0.8417152582       -2.2042099068        0.7170795996
H        -2.4276483236       -3.9746167972        1.1163898743
H        -4.7509675493       -4.8506396562        1.0114633492
H        -6.6083050614       -3.3783621964        0.2726303692
H        -6.1572582461       -0.9992517062       -0.3351020251
