 50

C         1.2138967424       -2.9751491487        0.0000000000
C        -0.1585669394       -3.0745701023        0.0000000000
C        -0.9661418197       -1.9216825951        0.0000000000
C        -0.3528589651       -0.6589812179        0.0000000000
C         1.0623632334       -0.5555519820        0.0000000000
C         1.8491637964       -1.7182756157        0.0000000000
C        -1.1575078836        0.5372019343        0.0000000000
C        -2.7327218275        2.8701914986        0.0000000000
C         1.6904149861        0.7416507432        0.0000000000
C         3.0865344000        0.8577731777        0.0000000000
C         3.6721507235        2.1432353085        0.0000000000
C         2.8981787184        3.2783517736        0.0000000000
C        -1.3361021527        2.9756938647        0.0000000000
C        -0.5429048322        1.8065733593        0.0000000000
C         0.8878303055        1.9136878986        0.0000000000
C         1.4906349346        3.1820062936        0.0000000000
C         0.6644029360        4.3567352373        0.0000000000
C        -0.6872127804        4.2586080723        0.0000000000
C        -2.4156545685       -2.0242980278        0.0000000000
C        -5.2206958731       -2.1855277757        0.0000000000
C        -4.4504035882       -3.3396343905        0.0000000000
C        -3.0620185787       -3.2626888922        0.0000000000
C        -3.1940274491       -0.8443668492        0.0000000000
C        -2.5600201348        0.4434955087        0.0000000000
C        -3.3485986898        1.6210272132        0.0000000000
C        -4.7856709240        1.4970341790        0.0000000000
C        -5.3818790905        0.2842479374        0.0000000000
C        -4.6035564370       -0.9295714851        0.0000000000
C         3.9053091924       -0.3400268867        0.0000000000
C         3.2961704324       -1.6073180946        0.0000000000
C         4.1080124224       -2.7586563976        0.0000000000
C         5.4828385027       -2.6550754951        0.0000000000
C         6.0894822229       -1.3927951931        0.0000000000
C         5.3114906568       -0.2545797219        0.0000000000
H         1.8389352291       -3.8814405197        0.0000000000
H        -0.6507696192       -4.0595577380        0.0000000000
H        -3.3446153301        3.7807344018        0.0000000000
H         4.7707307056        2.2165367774        0.0000000000
H         3.3669980106        4.2690090356        0.0000000000
H         1.1581868485        5.3353235503        0.0000000000
H        -1.3169803442        5.1557508673        0.0000000000
H        -6.3144949201       -2.2526491390        0.0000000000
H        -4.9378683053       -4.3202585697        0.0000000000
H        -2.4521149184       -4.1792328723        0.0000000000
H        -5.3799830803        2.4180919642        0.0000000000
H        -6.4741936946        0.1924877480        0.0000000000
H         3.6213344879       -3.7460864901        0.0000000000
H         6.1038436997       -3.5567247140        0.0000000000
H         7.1814907730       -1.3144230518        0.0000000000
H         5.7784449065        0.7423102061        0.0000000000
