 48

C        -7.3631714028        1.5228359566        0.0000000000
C        -7.3577031074        0.1132086820        0.0000000000
C        -6.1708823865       -0.5743510698        0.0000000000
C        -6.1799222562        2.2171196560        0.0000000000
C        -4.9438638901        1.5248668767        0.0000000000
C        -4.9338349511        0.1171484496        0.0000000000
C        -2.5240259623        1.5699549935        0.0000000000
C        -3.7076981510        2.2393752818        0.0000000000
C        -2.4843484357        0.1428506364        0.0000000000
C        -3.6755110035       -0.5797276616        0.0000000000
C        -3.6353769447       -2.0149561301        0.0000000000
C        -2.4588156210       -2.6845669160        0.0000000000
C        -1.2170311356       -0.5565758456        0.0000000000
C        -1.2100787534       -1.9743857736        0.0000000000
C         0.0047659230       -2.6629879223        0.0000000000
C        -0.0002732073        0.1283376751        0.0000000000
C         1.2189801455       -0.5521603972        0.0000000000
C         1.2171327004       -1.9699928489        0.0000000000
C         2.4684075883       -2.6756860453        0.0000000000
C         3.6425649959       -2.0018417573        0.0000000000
C         2.4837846633        0.1518277852        0.0000000000
C         3.6775486311       -0.5664736902        0.0000000000
C         3.6996369092        2.2527591093        0.0000000000
C         2.5183536038        1.5790898041        0.0000000000
C         4.9383852952        1.5426892715        0.0000000000
C         4.9334009052        0.1349136799        0.0000000000
C         6.1729271899       -0.5521382276        0.0000000000
C         7.3573086581        0.1396931832        0.0000000000
C         7.3577267603        1.5493266029        0.0000000000
C         6.1719647104        2.2393797281        0.0000000000
H        -8.3198498224        2.0552532960        0.0000000000
H        -8.3103443518       -0.4264733867        0.0000000000
H        -6.1539020172       -1.6748561843        0.0000000000
H        -6.1748490399        3.3130459886        0.0000000000
H        -1.5652035534        2.1111759850        0.0000000000
H        -3.7340663494        3.3350423954        0.0000000000
H        -4.5968845101       -2.5512196848        0.0000000000
H        -2.4332493825       -3.7803304132        0.0000000000
H         0.0067698455       -3.7601978039        0.0000000000
H        -0.0022795451        1.2351161594        0.0000000000
H         2.4467927655       -3.7715348197        0.0000000000
H         4.6059798674       -2.5346684408        0.0000000000
H         3.7220707966        3.3485174402        0.0000000000
H         1.5575926235        2.1168585930        0.0000000000
H         6.1599283266       -1.6526966365        0.0000000000
H         8.3118529291       -0.3966194049        0.0000000000
H         8.3124611210        2.0852280578        0.0000000000
H         6.1629953907        3.3352841365        0.0000000000
