 52

C         4.4469553266       -1.1935861392       -0.0449809328
C         5.1415106871        0.0055681117       -0.0183228078
C         4.4443184786        1.2029010888        0.0173437540
C         3.0454868060        1.2175822598        0.0092153201
C         3.0483977900       -1.2115857592       -0.0211161568
C         2.3284191927        0.0021500405       -0.0033775822
C        -1.9729787561        2.2728145030        0.8835110599
C        -3.3222875497        2.2437367359        0.9693201301
C        -1.2140395840        1.1825458874        0.3241775639
C         0.1838066960       -1.2300214560       -0.0920591597
C         0.8809444607        0.0003559088        0.0009644657
C         0.1806798513        1.2287290881        0.0976020035
C        -4.0657991309        1.1173213451        0.4751675700
C        -5.4636889283        1.1046800629        0.4692553836
C        -6.1509087950       -0.0028925489       -0.0120294094
C        -5.4605720861       -1.1111257026       -0.4872367192
C        -3.3500637533       -0.0038221278       -0.0008091333
C        -4.0626534855       -1.1249059727       -0.4815580805
C        -3.3161139794       -2.2526662285       -0.9678965197
C        -1.9672876886       -2.2813136277       -0.8743122411
C        -1.2114576713       -1.1882871767       -0.3163149600
C        -1.9138683840       -0.0034295231        0.0029482269
C         2.3295138300       -2.4721754343        0.0486901809
C         0.9231443997       -2.4785036563        0.0660305058
C         0.2778819031       -3.7040165132        0.3226913041
C         0.9843208064       -4.8823608017        0.4636354901
C         2.3762802774       -4.8787367040        0.3591359779
C         3.0366277258       -3.6826321079        0.1656552662
C         0.9163786749        2.4795382098       -0.0592201612
C         2.3228487918        2.4766260152       -0.0485598714
C         3.0263506249        3.6897990415       -0.1593799739
C         2.3622256493        4.8856655744       -0.3408018191
C         0.9698972977        4.8862648727       -0.4407934615
C         0.2671857137        3.7050121264       -0.3063460425
H         4.9992626587       -2.1449699698       -0.0717662764
H         6.2363648610        0.0068019610       -0.0251193190
H         4.9948435908        2.1554353591        0.0393728068
H        -1.4210055390        3.1438169189        1.2626775117
H        -3.8779400520        3.0757781014        1.4168717636
H        -6.0149106866        1.9739755468        0.8451894634
H        -7.2460237158       -0.0024185786       -0.0168838791
H        -6.0094609226       -1.9799567527       -0.8676405986
H        -3.8691345371       -3.0862512112       -1.4158454346
H        -1.4135598228       -3.1544707470       -1.2459499336
H        -0.8162143666       -3.7353523450        0.4165152984
H         0.4536222707       -5.8198607900        0.6595365827
H         2.9375052341       -5.8143855361        0.4474427509
H         4.1358760627       -3.6659468511        0.1150184745
H         4.1258474403        3.6759507468       -0.1136668838
H         2.9205467308        5.8235874887       -0.4231745354
H         0.4360927630        5.8238780854       -0.6275033829
H        -0.8271752615        3.7335640695       -0.3978031058
