 48

C         1.9684093425        1.8417698377        0.1881797846
C         4.7777640397        1.9209361601        0.1899684661
C         4.0456491677        3.0835627164        0.3395997907
C         2.6504170106        3.0466141702        0.3343689978
C         4.1184961054        0.6895294206        0.0423195806
C         2.7100980783        0.6462905568        0.0527719103
C         4.2248464008       -1.7174648532       -0.2591450040
C         4.8611219648       -0.5314734153       -0.1234637779
C         2.7877567662       -1.7955878973       -0.2284480975
C         2.0322355097       -0.6140752227       -0.0720549211
C         2.1388217476       -3.0311495863       -0.3397414137
C         0.6217111358       -0.6722792525       -0.0283880065
C        -1.5688590802        0.4753462387        0.0506050005
C        -0.1687704590        0.5332827684        0.0644135220
C         0.5095910179        1.7915668253        0.1478565262
C        -0.2216926464        2.9548902513        0.1855600833
C        -2.3023754959        1.6997196432       -0.1247565628
C        -1.6242837362        2.9321911252        0.0077267281
C        -2.3335393572        4.1610289265       -0.0908067369
C        -3.6669067985        4.1705420649       -0.3924106854
C        -4.3353981278        2.9496445883       -0.6276257297
C        -3.6741125582        1.7580696602       -0.4987163889
C        -2.2089846230       -0.8267050258        0.2112357864
C        -3.5474749608       -0.9827576518        0.5887586235
C        -4.1400503831       -2.2369122054        0.6771970969
C        -3.4113869164       -3.3826386942        0.3994521308
C        -1.4372634167       -2.0041904386        0.0484031300
C        -2.0507244668       -3.2768469101        0.0978146939
C        -1.2596102884       -4.4587488273       -0.1398699526
C         0.0756593776       -4.3774091284       -0.3230508255
C         0.7518143587       -3.1051237023       -0.2672042818
C        -0.0140580170       -1.9227386130       -0.1049471834
H         5.8731570746        1.9513819728        0.1856114292
H         4.5584953285        4.0437133325        0.4589945792
H         2.0759897280        3.9794070356        0.4423441441
H         4.7885975060       -2.6483686811       -0.3901955423
H         5.9554647748       -0.4718563557       -0.1387066985
H         2.7305136223       -3.9458695980       -0.4692000760
H         0.2920389775        3.9223374216        0.3085331691
H        -1.7882615382        5.0986012824        0.0676848503
H        -4.2200975835        5.1118855349       -0.4702096875
H        -5.3901318143        2.9671585693       -0.9217375099
H        -4.2154568898        0.8244643450       -0.7037556952
H        -4.1592131846       -0.1010659295        0.8238751657
H        -5.1929969216       -2.3171937903        0.9678318923
H        -3.8896066299       -4.3677675288        0.4370239394
H        -1.7759949257       -5.4254182358       -0.1615430958
H         0.6794747413       -5.2742036131       -0.5032562972
