 48

C        -4.5052919979       -0.8915207317        0.1373137705
C        -5.8669706965       -0.5582297322        0.0934248235
C        -6.2601890975        0.7450974720       -0.1626080723
C        -5.3101036363        1.7391768923       -0.3870956912
C        -3.9512115175        1.4324537485       -0.3438425364
C        -3.5311163915        0.1101160455       -0.0683702552
C        -2.1322162746       -0.2104074628       -0.0015096712
C        -1.1518419996        0.8189616892       -0.1273217315
C        -1.6309128950        2.1319050470       -0.4959808043
C        -2.9436108174        2.4282690528       -0.5992517341
C        -1.7496351033       -1.5464837300        0.1995792314
C        -0.3713633421       -1.8804857148        0.1680821679
C         0.5930818839       -0.8564459770        0.0865141523
C         0.2066244268        0.5164089892        0.0604046069
C         1.9762896367       -1.2314466777       -0.0237431214
C         2.3531599767       -2.5812109672       -0.0684077326
C         1.3538025982       -3.5941499303        0.0701577800
C         0.0478640835       -3.2508068659        0.1942864030
C         2.9826352377       -0.2300117473       -0.1152073236
C         4.3245678983       -0.5942137036       -0.2892745892
C         4.6747812246       -1.9655048756       -0.3735372776
C         3.7148825637       -2.9329916609       -0.2535030980
C         2.6206666571        1.1465066467        0.0414922361
C         3.6431997271        2.1160393219        0.0830670920
C         5.0025571999        1.7267177849       -0.1581093610
C         5.3304336468        0.4240216226       -0.3467034628
C         1.2599982707        1.5229364761        0.2196247530
C         1.0037822395        2.8351708105        0.6019444305
C         2.0232475786        3.7907162999        0.6820104843
C         3.3259050852        3.4525923347        0.3908094734
C        -4.0770433272       -2.2393066954        0.3820803719
C        -2.7591516218       -2.5488562159        0.3993264731
H         4.1216389505        4.2052613366        0.4197833634
H        -0.0198465314        3.1522961253        0.8440023948
H         1.7714059864        4.8165183801        0.9716189709
H         5.7698528893        2.5092113433       -0.1784799025
H         6.3683608675        0.1229269999       -0.5288378479
H         5.7262417598       -2.2360810698       -0.5232117985
H         3.9839524356       -3.9945227226       -0.3006092606
H         1.6653835027       -4.6448294131        0.0711933898
H        -0.7288643530       -4.0227674081        0.3059935952
H        -3.2739215733        3.4317004273       -0.8921629581
H        -0.8879902013        2.9103029923       -0.7195559076
H        -6.6180848656       -1.3382797785        0.2619810601
H        -7.3252460396        0.9979778892       -0.1935733978
H        -5.6305103344        2.7651722212       -0.6004703072
H        -2.4246783878       -3.5838302364        0.5680009171
H        -4.8412106888       -3.0075709113        0.5461011147
