 48

C         7.7645671370       -0.9238149694       -0.3935734393
C         7.9268908799        0.4780971147       -0.1701857680
C         6.8468319079        1.2761602322        0.0264050851
C         6.5275083009       -1.4818459323       -0.4131181361
C         5.3568167061       -0.6735608640       -0.2095167622
C         5.5189817603        0.7266693435        0.0137385400
C         4.4030914474        1.5287479196        0.2133478328
C         4.0838564996       -1.2283309554       -0.2267010380
C         2.9490930575       -0.4217178247       -0.0254776493
C         3.1110641364        0.9730285241        0.1976044970
C         1.9601202550        1.7756774953        0.4017005934
C         1.6432364556       -0.9738582083       -0.0424269836
C         0.5290201092       -0.1841326639        0.1493960658
C         0.7000478720        1.2182686862        0.3800804224
C        -0.4744630661        2.0237408630        0.6035832058
C        -1.7118360001        1.4957452748        0.5110764173
C        -0.8196921772       -0.7344699710        0.1163310651
C        -1.9395161095        0.1035986465        0.1981511471
C        -2.2418112712       -2.6830423454        0.0820161882
C        -0.9914111632       -2.1367033377        0.0272307082
C        -3.3851824211       -1.8480704340        0.1184688796
C        -3.2563273067       -0.4485227606        0.0599262200
C        -5.8004733575       -1.7209044147        0.2443405141
C        -4.6732559297       -2.4682075392        0.2377162735
C        -5.7243905329       -0.3084647492        0.0120291173
C        -4.4720070968        0.3231838986       -0.1403703239
C        -4.4786151534        1.6718768291       -0.5657384029
C        -5.6517388602        2.3716335723       -0.7297753695
C        -6.8878514381        1.7553881698       -0.4812905332
C        -6.9219844998        0.4279849132       -0.1270956395
H         8.6595050205       -1.5353475186       -0.5481975973
H         8.9405382508        0.8918995745       -0.1614529647
H         6.9610520594        2.3524232922        0.1984921876
H         6.3928531049       -2.5559736623       -0.5837406906
H         4.5243368611        2.6053919405        0.3852121293
H         3.9566102978       -2.3042898625       -0.3984577733
H         2.0867649091        2.8510526898        0.5781672298
H         1.5232952453       -2.0557814121       -0.2130012112
H        -0.3310919519        3.0799630910        0.8603802485
H        -2.5835810934        2.1338824434        0.7112214716
H        -2.3751240932       -3.7711899258        0.0838611543
H        -0.0988728571       -2.7757972891       -0.0531081206
H        -6.7863247195       -2.1787577688        0.3845516844
H        -4.7177631411       -3.5582440304        0.3462493437
H        -3.5282190469        2.1764406197       -0.7864933553
H        -5.6271678681        3.4151756098       -1.0608696250
H        -7.8136218074        2.3294453205       -0.5890540954
H        -7.8802265418       -0.0781455764        0.0380910182
