 48

C         0.7311737790       -0.6543296347        0.0000000000
C         1.4357475356       -1.8229227648        0.0000000000
C         0.7306270778        1.8349250170        0.0000000000
C         1.4261924977        0.6142984338        0.0000000000
C         2.8336683133        3.0482839342        0.0000000000
C         1.4504358959        3.0379123262        0.0000000000
C        -0.7317934526       -0.6536362089        0.0000000000
C        -1.4373957706       -1.8216083097        0.0000000000
C        -1.4256549726        0.6156137659        0.0000000000
C        -0.7289616807        1.8355730518        0.0000000000
C        -1.4476819242        3.0392661555        0.0000000000
C        -2.8308815529        3.0508744181        0.0000000000
C        -2.8724251837       -1.8377213386        0.0000000000
C        -5.6767902971       -1.8140023759        0.0000000000
C        -4.9821752140       -3.0176775406        0.0000000000
C        -3.5925977265       -3.0369068859        0.0000000000
C        -3.5696179553       -0.6088583634        0.0000000000
C        -2.8411989306        0.6243277311        0.0000000000
C        -3.5466164749        1.8474531634        0.0000000000
C        -4.9862254430        1.8308887155        0.0000000000
C        -5.6721328846        0.6645545462        0.0000000000
C        -4.9827405187       -0.5998696566        0.0000000000
C         2.8707520879       -1.8403574719        0.0000000000
C         3.5898535416       -3.0402000782        0.0000000000
C         4.9794428478       -3.0222023535        0.0000000000
C         5.6751563191       -1.8191564548        0.0000000000
C         3.5690766056       -0.6121377292        0.0000000000
C         4.9822033377       -0.6044234452        0.0000000000
C         5.6727606366        0.6593664296        0.0000000000
C         4.9878965887        1.8263112564        0.0000000000
C         3.5482594014        1.8441848778        0.0000000000
C         2.8417262852        0.6216880583        0.0000000000
H         0.8999180807       -2.7862238077        0.0000000000
H         3.3761381124        4.0005703807        0.0000000000
H         0.8929428150        3.9874244737        0.0000000000
H        -0.9024704984       -2.7854051985        0.0000000000
H        -0.8892825540        3.9882447960        0.0000000000
H        -3.3725695035        4.0036119954        0.0000000000
H        -6.7726505090       -1.8117860968        0.0000000000
H        -5.5362164212       -3.9624168578        0.0000000000
H        -3.0560673670       -3.9923501240        0.0000000000
H        -5.5106742379        2.7934152486        0.0000000000
H        -6.7680994264        0.6533503604        0.0000000000
H         3.0524008064       -3.9951245699        0.0000000000
H         5.5327478133       -3.9673762196        0.0000000000
H         6.7710144160       -1.8179676674        0.0000000000
H         6.7687125118        0.6471635377        0.0000000000
H         5.5131704491        2.7883914680        0.0000000000
