 48

C        -4.2637139705        2.6749863420       -0.1322621793
C        -4.3206254449        1.2537382292        0.0716393840
C        -3.1261717882        0.5034280969        0.0528825596
C        -1.8692471247        1.1711251306       -0.1347812625
C        -1.8509622933        2.5571875813       -0.3556921594
C        -3.0803339526        3.2982064080       -0.3483891951
C        -3.1780819683       -0.9019010057        0.2134631203
C        -4.4089713908       -1.5196245748        0.4147442493
C        -5.5848067520       -0.7692475000        0.4541334476
C        -5.5475757787        0.6016595160        0.2802384268
C        -0.6517797863        0.4383304856       -0.0988086430
C        -0.7121179355       -0.9957183099        0.0051908669
C        -1.9421689542       -1.6657946550        0.1392205112
C         0.4873816617       -1.7361628419       -0.0898790136
C         0.4341403942       -3.1444987386       -0.0981093647
C        -0.7982645491       -3.7973368681        0.0413382980
C        -1.9639974138       -3.0675842024        0.1703229268
C         1.7525459563       -1.0500802196       -0.1433290980
C         2.9396739436       -1.8386756882       -0.2404947764
C         2.8426913774       -3.2775282553       -0.3297589844
C         1.6508573093       -3.9026251936       -0.2491145741
C         1.8244342929        0.3504331090       -0.0739041711
C         3.1100342872        0.9504557739        0.1349273102
C         4.2763046405        0.1610879852       -0.0139382730
C         4.1749677757       -1.2275792816       -0.2413891293
C         0.5825234660        1.1015955185       -0.2136926493
C        -0.6164838267        3.1908306231       -0.5974431342
C         0.5566342131        2.4786732823       -0.5335532540
C         5.5669393507        0.7516463173        0.1137500391
C         5.6994347401        2.0649756059        0.4618005725
C         4.5435170024        2.8381873436        0.7162651727
C         3.2975593527        2.2984488375        0.5580057029
H         1.4996484718        3.0015922666       -0.7445396690
H        -0.6011251511        4.2603521973       -0.8372100441
H        -2.9332274604       -3.5764302910        0.2897346654
H        -0.8319022854       -4.8928585731        0.0480421953
H         1.5765202248       -4.9950702555       -0.2966974119
H         3.7723104830       -3.8460381128       -0.4501037459
H         5.0887233411       -1.8202598498       -0.3749218686
H         6.4501404884        0.1259735802       -0.0599365872
H         6.6875805660        2.5246237457        0.5642037876
H         4.6597716235        3.8751691367        1.0485534161
H         2.4182973384        2.9179525950        0.7811167561
H        -6.4731206191        1.1880418952        0.3018128139
H        -6.5417810752       -1.2754027534        0.6189345592
H        -4.4429215158       -2.6132563320        0.5363486104
H        -3.0336034864        4.3800679194       -0.5176159381
H        -5.2037196554        3.2383702432       -0.1145210509
