 48

C         5.0694650940        0.2041989726       -0.2551161305
C         4.4816977544        1.4081285981       -0.4112691606
C         3.0463392496        1.5664613668       -0.3129207658
C         2.4541788703        2.8084391314       -0.3908102519
C         1.0523460207        2.9425896592       -0.2469993036
C         0.4409081145        4.2283033324       -0.2207122788
C        -0.9029965380        4.3531884963       -0.0183471486
C         4.2861475808       -0.9787205256        0.0227161139
C         2.7113610221       -3.2306646841        0.5940703057
C         4.0869208163       -3.3328879916        0.5351261947
C         4.8780248870       -2.2150793670        0.2468177430
C         2.0810755546       -1.9926098056        0.3575366355
C         2.8735529207       -0.8616014321        0.0785076621
C         2.2406053066        0.4030465898       -0.1095221603
C         0.6596113999       -1.8646758517        0.3710126894
C         0.0277420002       -0.6770608306        0.0985920017
C         0.8424173031        0.5043474835       -0.0587553619
C         0.2498187776        1.7938951297       -0.0964395384
C        -1.4315170931       -0.5412098176        0.0270440167
C        -4.2263815861       -0.1717355305        0.3210504842
C        -1.9820518166        0.7474515640        0.1508328625
C        -1.1586185090        1.9284181048        0.0772674934
C        -1.7236768141        3.2029369824        0.1410524845
C        -3.1354313846        3.3470131103        0.3603423963
C        -3.9278562847        2.2553189864        0.4530425132
C        -3.3848066848        0.9286640589        0.3122486294
C        -2.3227406373       -1.6374589243       -0.1639125989
C        -3.7145427215       -1.4487027608        0.0447443968
C        -4.6148614907       -2.5538977045       -0.0616002953
C        -4.1664644313       -3.7819085338       -0.4432046406
C        -2.7953446488       -3.9592389354       -0.7574047466
C        -1.9128726551       -2.9285516604       -0.6212354790
H         6.1572203924        0.0907905541       -0.3275678490
H         5.0784766104        2.3052295698       -0.6133433816
H         3.0640075544        3.7072856569       -0.5439460005
H         1.0721449997        5.1145629210       -0.3524318329
H        -1.3717674828        5.3433033520        0.0205706550
H         2.0987806763       -4.1102648677        0.8222958997
H         4.5710819558       -4.2985749660        0.7156193859
H         5.9682177435       -2.3169052809        0.2031821140
H         0.0817740916       -2.7735803651        0.5941233328
H        -5.3008690146       -0.0442885466        0.5034039964
H        -3.5487878546        4.3582511955        0.4477420125
H        -5.0066125361        2.3537761438        0.6214726075
H        -5.6752126830       -2.3868565243        0.1607813424
H        -4.8494449833       -4.6331728490       -0.5270869715
H        -2.4567647127       -4.9356597365       -1.1196460340
H        -0.8591926646       -3.0890715398       -0.8880131657
