 48

C         4.9315357301       -2.1756565718        0.0000000000
C         5.6269103222       -0.9709710117        0.0000000000
C         4.9470429471        0.2389211180        0.0000000000
C         3.5464552418        0.2616000904        0.0000000000
C         2.8205076438        1.4965911288        0.0000000000
C         1.4557162754        1.5248247075        0.0000000000
C        -1.4340400172        1.5452743371        0.0000000000
C        -2.7991053898        1.5363081783        0.0000000000
C        -0.7005610060        0.3005111440        0.0000000000
C         0.7047213489        0.2905658576        0.0000000000
C         1.3966962428       -0.9431228781        0.0000000000
C         0.6886608933       -2.1679665852        0.0000000000
C         1.4350087608       -3.4000385487        0.0000000000
C         2.7869795296       -3.4118452243        0.0000000000
C         3.5345541616       -2.1820193026        0.0000000000
C         2.8293350822       -0.9559429160        0.0000000000
C        -0.6829848104        2.8002284962        0.0000000000
C         0.7225185772        2.7902759547        0.0000000000
C         1.4142730726        4.0093930960        0.0000000000
C         0.7334129617        5.2159471676        0.0000000000
C        -0.6594408940        5.2258313651        0.0000000000
C        -1.3573635900        4.0290617808        0.0000000000
C        -3.5424350698        0.3117010899        0.0000000000
C        -4.9431822896        0.3088280932        0.0000000000
C        -5.6400698142       -0.8913382315        0.0000000000
C        -4.9618013478       -2.1057203511        0.0000000000
C        -2.8425779895       -0.9158432588        0.0000000000
C        -3.5650572011       -2.1318079517        0.0000000000
C        -2.8349752582       -3.3720861767        0.0000000000
C        -1.4829751806       -3.3793959164        0.0000000000
C        -0.7192704642       -2.1580163619        0.0000000000
C        -1.4099068731       -0.9232744037        0.0000000000
H         5.4784694195       -3.1252879821        0.0000000000
H         6.7220810575       -0.9781157412        0.0000000000
H         5.5037271445        1.1828562021        0.0000000000
H         3.3910037312        2.4395819325        0.0000000000
H        -3.3562370002        2.4872565404        0.0000000000
H         0.8594031226       -4.3385106469        0.0000000000
H         3.3440249688       -4.3557248383        0.0000000000
H         2.5151195258        3.9960406256        0.0000000000
H         1.2890627553        6.1592258846        0.0000000000
H        -1.2016737546        6.1768863895        0.0000000000
H        -2.4582883021        4.0313587535        0.0000000000
H        -5.4864329647        1.2605548514        0.0000000000
H        -6.7352341073       -0.8830549339        0.0000000000
H        -5.5220664204       -3.0475461718        0.0000000000
H        -3.4053532698       -4.3079665147        0.0000000000
H        -0.9207172088       -4.3259273113        0.0000000000
