 48

C         7.6275883833       -1.8336658159        0.0000000000
C         8.0568725848       -0.4709735844        0.0000000000
C         7.1502710995        0.5391768696        0.0000000000
C         6.3057022689       -2.1418237831        0.0000000000
C         5.3123736504       -1.1034581484        0.0000000000
C         5.7411420141        0.2575966472        0.0000000000
C         4.8000822349        1.2790706080        0.0000000000
C         3.9557506584       -1.4011655522        0.0000000000
C         2.9976442426       -0.3716326789        0.0000000000
C         3.4249114757        0.9844691166        0.0000000000
C         2.4502443368        2.0149033629        0.0000000000
C         1.6091967478       -0.6595022872        0.0000000000
C         0.6700311992        0.3495538177        0.0000000000
C         1.1052150059        1.7148669014        0.0000000000
C         0.1130952002        2.7640860981        0.0000000000
C        -1.2043629414        2.4774054776        0.0000000000
C        -0.7579307286        0.0669745373        0.0000000000
C        -1.6812729988        1.1147406472        0.0000000000
C        -2.5612554416       -1.5488367514        0.0000000000
C        -1.2221539079       -1.2713906081        0.0000000000
C        -3.5178265894       -0.5036255147        0.0000000000
C        -3.0807931918        0.8293524324        0.0000000000
C        -4.0549073021        1.8835757282        0.0000000000
C        -5.3832967537        1.6160048618        0.0000000000
C        -4.9328216749       -0.7958402096        0.0000000000
C        -5.8574359703        0.2631601009        0.0000000000
C        -7.2423517126       -0.0162871229        0.0000000000
C        -7.6874873185       -1.3173619057        0.0000000000
C        -6.7659007958       -2.3793815857        0.0000000000
C        -5.4149876971       -2.1242766780        0.0000000000
H         8.3881013278       -2.6213405166        0.0000000000
H         9.1315349267       -0.2614275380        0.0000000000
H         7.4699262484        1.5874302029        0.0000000000
H         5.9668761677       -3.1840297207        0.0000000000
H         5.1270104694        2.3262318727        0.0000000000
H         3.6236617311       -2.4466583521        0.0000000000
H         2.7842068874        3.0600185009        0.0000000000
H         1.2776837413       -1.7104643154        0.0000000000
H         0.4646820599        3.8024302398        0.0000000000
H        -1.9581742253        3.2794123487        0.0000000000
H        -2.9241547254       -2.5882432219        0.0000000000
H        -0.4780625984       -2.0828228077        0.0000000000
H        -3.6885343896        2.9213942539        0.0000000000
H        -6.1212925709        2.4264062101        0.0000000000
H        -7.9547191310        0.8165365717        0.0000000000
H        -8.7603396640       -1.5357743251        0.0000000000
H        -7.1331475310       -3.4108313073        0.0000000000
H        -4.6834530401       -2.9467494970        0.0000000000
