 50

C         2.7186842227        1.4186868390        0.0000000000
C         1.5050973036       -1.1180115028        0.0000000000
C        -0.5022760024       -2.5000789269        0.0000000000
C         0.8456106728       -2.3990344001        0.0000000000
C        -1.3348559072       -1.3243066459        0.0000000000
C        -2.7186684157       -1.4186349882        0.0000000000
C         0.7161791258        0.0459558508        0.0000000000
C         1.3348721439        1.3243765926        0.0000000000
C         0.5022924155        2.5001545043        0.0000000000
C        -0.8456220757        2.3991176374        0.0000000000
C        -1.5051281701        1.1180800251        0.0000000000
C        -0.7161786204       -0.0458814609        0.0000000000
C        -3.5214601490       -0.2660321430        0.0000000000
C        -2.9187438493        1.0089974833        0.0000000000
C        -3.7539923962        2.1788517165        0.0000000000
C        -5.1036071613        2.0820818167        0.0000000000
C         3.5214624303        0.2660651824        0.0000000000
C         2.9187104491       -1.0089427554        0.0000000000
C         3.7538924140       -2.1788400827        0.0000000000
C         5.1035381316       -2.0821270050        0.0000000000
C        -4.9669973643       -0.3709286772        0.0000000000
C        -5.7472813567        0.7981218317        0.0000000000
C        -7.1549016978        0.7005912978        0.0000000000
C        -7.7656798200       -0.5331975014        0.0000000000
C        -6.9898662951       -1.7035780827        0.0000000000
C        -5.6156756560       -1.6242008366        0.0000000000
C         4.9670135701        0.3709040630        0.0000000000
C         5.7472611248       -0.7981824022        0.0000000000
C         7.1548986748       -0.7007000473        0.0000000000
C         7.7657224742        0.5330672703        0.0000000000
C         6.9899470568        1.7034850305        0.0000000000
C         5.6157509354        1.6241615542        0.0000000000
H         3.2089125691        2.4056825540        0.0000000000
H        -0.9945362408       -3.4793895457        0.0000000000
H         1.4826417950       -3.2967952892        0.0000000000
H        -3.2088862740       -2.4056367014        0.0000000000
H         0.9945598279        3.4794638377        0.0000000000
H        -1.4826392789        3.2968879545        0.0000000000
H        -3.2553662426        3.1602850685        0.0000000000
H        -5.7338059342        2.9788742551        0.0000000000
H         3.2552050797       -3.1602463414        0.0000000000
H         5.7336957004       -2.9789508159        0.0000000000
H        -7.7544007141        1.6180459001        0.0000000000
H        -8.8578363483       -0.6099242223        0.0000000000
H        -7.4858335383       -2.6796711216        0.0000000000
H        -4.9980183344       -2.5352967285        0.0000000000
H         7.7543538885       -1.6181844692        0.0000000000
H         8.8578814379        0.6097682595        0.0000000000
H         7.4859649994        2.6795526824        0.0000000000
H         4.9981289429        2.5352818573        0.0000000000
