 48

C         7.2307652890       -0.9213977082        0.0000000000
C         7.8047154367        0.3345395845        0.0000000000
C         6.9957425667        1.4771075358        0.0000000000
C         5.6209246697        1.3531021525        0.0000000000
C         5.8314460741       -1.0621205383        0.0000000000
C         5.0170264985        0.0829416864        0.0000000000
C         3.8875841980       -2.5221002498        0.0000000000
C         5.2280261584       -2.3736123029        0.0000000000
C         3.0075995767       -1.3757482235        0.0000000000
C         3.5696650251       -0.0633643438        0.0000000000
C         2.7322140084        1.0373017495        0.0000000000
C         1.6341864191       -1.5406915323        0.0000000000
C         0.7745477772       -0.4210762562        0.0000000000
C         1.3296863481        0.8822627541        0.0000000000
C         0.4632137804        2.0046021235        0.0000000000
C        -0.6346654077       -0.5734002209        0.0000000000
C        -1.4686839108        0.5233346732        0.0000000000
C        -0.9044555848        1.8385834546        0.0000000000
C        -1.7859293495        2.9885984566        0.0000000000
C        -3.1236634410        2.8465531948        0.0000000000
C        -2.9207953669        0.3723791628        0.0000000000
C        -3.7434410903        1.5369676772        0.0000000000
C        -5.1200487495        1.4131492656        0.0000000000
C        -3.5113247793       -0.8774958137        0.0000000000
C        -4.9155592488       -1.0169734055        0.0000000000
C        -5.7278105126        0.1389581086        0.0000000000
C        -7.1453533015       -0.0073630465        0.0000000000
C        -7.7097460553       -1.2510366752        0.0000000000
C        -6.8943132493       -2.4111945346        0.0000000000
C        -5.5329816873       -2.3012503306        0.0000000000
H         7.8611877891       -1.8179148056        0.0000000000
H         8.8942963895        0.4420764247        0.0000000000
H         7.4582460999        2.4694611952        0.0000000000
H         4.9724632244        2.2427512203        0.0000000000
H         3.4294363331       -3.5180342432        0.0000000000
H         5.8940368630       -3.2442626466        0.0000000000
H         3.1710827534        2.0482262702        0.0000000000
H         1.1993757313       -2.5479214230        0.0000000000
H         0.8999382883        3.0110477660        0.0000000000
H        -1.0703668965       -1.5857279353        0.0000000000
H        -1.3234082723        3.9826477476        0.0000000000
H        -3.7847558988        3.7212007215        0.0000000000
H        -5.7555778799        2.3074567398        0.0000000000
H        -2.8737558680       -1.7763895841        0.0000000000
H        -7.7682028749        0.8942500536        0.0000000000
H        -8.7982760449       -1.3692678652        0.0000000000
H        -7.3741537688       -3.3953813921        0.0000000000
H        -4.8954958172       -3.1925011975        0.0000000000
