 48

C        -7.3981433522        2.0410816132        0.0000000000
C        -7.3595016707        0.6590292738        0.0000000000
C        -4.9903111794        2.1238525836        0.0000000000
C        -6.2088442091        2.7760968635        0.0000000000
C        -4.9306691064        0.7205062877        0.0000000000
C        -6.1276338227       -0.0154106399        0.0000000000
C        -6.0853082428       -1.4609318530        0.0000000000
C        -4.9125645969       -2.1230160570        0.0000000000
C        -3.6517753632        0.0212200958        0.0000000000
C        -3.6488527140       -1.4161554729        0.0000000000
C        -2.4598230441       -2.1034794518        0.0000000000
C        -2.4594724564        0.7026889195        0.0000000000
C        -1.2140926895        0.0124228650        0.0000000000
C        -1.2139642677       -1.4126362299        0.0000000000
C         0.0005342955       -2.1050172889        0.0000000000
C        -0.0001241538        0.7055741899        0.0000000000
C         1.2141045818        0.0129963746        0.0000000000
C         1.2146498932       -1.4120835078        0.0000000000
C         2.4608808459       -2.1023420772        0.0000000000
C         2.4592116743        0.7038279297        0.0000000000
C         3.6517733789        0.0229125908        0.0000000000
C         3.6495472849       -1.4144777950        0.0000000000
C         4.9136268432       -2.1207193463        0.0000000000
C         6.0860316694       -1.4580581303        0.0000000000
C         4.9303095881        0.7228047234        0.0000000000
C         6.1276561381       -0.0125144048        0.0000000000
C         7.3591705813        0.6625523821        0.0000000000
C         7.3970812856        2.0446546407        0.0000000000
C         6.2074033565        2.7790365297        0.0000000000
C         4.9891948095        2.1261376138        0.0000000000
H        -8.3599168782        2.5642726270        0.0000000000
H        -8.2903918931        0.0805505142        0.0000000000
H        -4.0465086607        2.6906321460        0.0000000000
H        -6.2457611695        3.8703096326        0.0000000000
H        -7.0399258140       -1.9997922393        0.0000000000
H        -4.8824805904       -3.2189336465        0.0000000000
H        -2.4520986126       -3.2006753034        0.0000000000
H        -2.4642257575        1.8048424847        0.0000000000
H         0.0007505686       -3.2020644249        0.0000000000
H        -0.0004225312        1.8025061608        0.0000000000
H         2.4536185201       -3.1995426742        0.0000000000
H         2.4634550542        1.8059836656        0.0000000000
H         4.8840672433       -3.2166535071        0.0000000000
H         7.0409243672       -1.9964343618        0.0000000000
H         8.2903788068        0.0845803802        0.0000000000
H         8.3585971094        2.5683226109        0.0000000000
H         6.2437022504        3.8732700558        0.0000000000
H         4.0451025818        2.6924240598        0.0000000000
