 48

C         1.6643496012       -0.0000108872        0.0000117978
C         0.2706921047       -0.0000151060        0.0000045586
C         0.2107393176        2.4550114598       -0.1590595265
C        -0.4648916381        1.2349721979       -0.0890973891
C        -1.8901884951        3.6466200274       -0.4179143680
C        -0.5267170359        3.6560751354       -0.3494467562
C        -2.6046867690        2.4259660725       -0.2886567896
C        -1.8919502283        1.2270998739       -0.1320753353
C        -4.7111009982        1.2308956198       -0.1616929164
C        -4.0308218211        2.4027089778       -0.3075806778
C        -4.0099729702        0.0000065612        0.0000064051
C        -2.6097872785       -0.0000018763        0.0000030788
C        -4.0308430290       -2.4026970022        0.3075855242
C        -4.7111134369       -1.2308786755        0.1617077034
C        -2.6047052024       -2.4259633870        0.2886520070
C        -1.8919527685       -1.2271099159        0.1320758850
C        -0.4648886208       -1.2350020076        0.0890963243
C         0.2107410316       -2.4550537370        0.1590461250
C        -0.5267589200       -3.6561093762        0.3494192687
C        -1.8902258695       -3.6466281555        0.4178928572
C         1.6402351719       -2.4755907738       -0.0300636000
C         2.3500190760       -1.2662757284       -0.1799539218
C         3.7044649040       -1.3518288517       -0.5803867204
C         4.3445035289       -2.5611180498       -0.7184029782
C         3.6557348664       -3.7562226677       -0.4628899534
C         2.3222595362       -3.7091429135       -0.1359847301
C         2.3500175022        1.2662631970        0.1799757850
C         1.6402229783        2.4755713615        0.0300549387
C         2.3221837717        3.7091299415        0.1359429735
C         3.6556634234        3.7562591636        0.4628706824
C         4.3444455937        2.5611816321        0.7184309010
C         3.7044307247        1.3518553490        0.5804275937
H        -2.4506970728        4.5771122789       -0.5630464493
H         0.0306735733        4.6017882449       -0.4299896443
H        -5.8069566597        1.2137491470       -0.1676235941
H        -4.5674290936        3.3497013165       -0.4365925796
H        -4.5674439561       -3.3496932010        0.4365959520
H        -5.8069686903       -1.2137021649        0.1676425696
H         0.0306599942       -4.6018060304        0.4299394646
H        -2.4507304007       -4.5771238783        0.5630173277
H         4.2626706789       -0.4302121788       -0.7947511003
H         5.3930479543       -2.5972963508       -1.0318641109
H         4.1780508916       -4.7148476650       -0.5429133695
H         1.7581919896       -4.6387318891        0.0352582788
H         1.7581502882        4.6387341199       -0.0353374253
H         4.1779714086        4.7148899740        0.5428763804
H         5.3929795341        2.5974268207        1.0319214530
H         4.2628717444        0.4303989106        0.7948820817
