 48

C         7.1046247283       -2.3005838309        0.0000000000
C         7.7963285749       -1.0589032653        0.0000000000
C         7.1074065912        0.1172582664        0.0000000000
C         5.7419450554       -2.3339431693        0.0000000000
C         4.9895095326       -1.1194105232        0.0000000000
C         5.6787055051        0.1176693508        0.0000000000
C         4.9464973386        1.3165549571        0.0000000000
C         3.5851155233       -1.1300494384        0.0000000000
C         2.8613796054        0.0554483288        0.0000000000
C         3.5580422703        1.2963982395        0.0000000000
C         2.8039041733        2.5244530642        0.0000000000
C         1.4538446747        2.5116686741        0.0000000000
C         1.4086655453        0.0613374877        0.0000000000
C         0.7120687578        1.2756993445        0.0000000000
C        -0.6836548249       -1.1556771990        0.0000000000
C         0.6855654605       -1.1545500800        0.0000000000
C        -1.4087559752        0.0590148522        0.0000000000
C        -0.7141716602        1.2745293508        0.0000000000
C        -1.4579907779        2.5092871598        0.0000000000
C        -2.8081151780        2.5198050013        0.0000000000
C        -2.8614646815        0.0507091056        0.0000000000
C        -3.5602179484        1.2905009936        0.0000000000
C        -4.9487211858        1.3083336981        0.0000000000
C        -3.5832001615       -1.1359990649        0.0000000000
C        -4.9876268265       -1.1277165436        0.0000000000
C        -5.6789165157        0.1082061154        0.0000000000
C        -7.1076271446        0.1053855508        0.0000000000
C        -7.7945720951       -1.0719634534        0.0000000000
C        -7.1007694655       -2.3124689289        0.0000000000
C        -5.7380116754       -2.3435256656        0.0000000000
H         7.6862386907       -3.2282563485        0.0000000000
H         8.8912274593       -1.0651856957        0.0000000000
H         7.6323562830        1.0791803807        0.0000000000
H         5.2005390164       -3.2866600767        0.0000000000
H         5.4815736438        2.2743056555        0.0000000000
H         3.0455057920       -2.0907758305        0.0000000000
H         3.3589617307        3.4697643623        0.0000000000
H         0.8797493704        3.4506705595        0.0000000000
H        -1.2467939503       -2.1016921417        0.0000000000
H         1.2502578903       -2.0996394847        0.0000000000
H        -0.8854459663        3.4492347406        0.0000000000
H        -3.3647479347        3.4641961701        0.0000000000
H        -5.4854219387        2.2651752795        0.0000000000
H        -3.0419937055       -2.0958235049        0.0000000000
H        -7.6342207385        1.0664104631        0.0000000000
H        -8.8894603505       -1.0800437249        0.0000000000
H        -7.6807690254       -3.2411520180        0.0000000000
H        -5.1950227405       -3.2953407538        0.0000000000
