 48

C         3.6974529580        2.3758586013        0.0000000000
C         2.9223075079        3.5267201432        0.0000000000
C         1.5381895233        3.4338751170        0.0000000000
C         3.0990495335        1.1119377084        0.0000000000
C         1.8391326345       -1.4557302909        0.0000000000
C        -0.1754393420       -2.7980231862        0.0000000000
C         1.2011342632       -2.7054040344        0.0000000000
C        -0.9731300708       -1.6444513628        0.0000000000
C        -1.3521254451        3.2395794408        0.0000000000
C        -2.7239258158        3.1490440360        0.0000000000
C         1.0582315598       -0.2856187950        0.0000000000
C         1.6906614880        1.0108478235        0.0000000000
C         0.9068240927        2.1857850609        0.0000000000
C        -0.5435838861        2.0831645122        0.0000000000
C        -1.1509476019        0.8217900916        0.0000000000
C        -0.3542510465       -0.3816191882        0.0000000000
C         3.9088608136       -0.0971032250        0.0000000000
C         3.2898900086       -1.3581783817        0.0000000000
C         4.0901035559       -2.5152176245        0.0000000000
C         5.4676717832       -2.4240754533        0.0000000000
C         6.0838572417       -1.1689307293        0.0000000000
C         5.3135473608       -0.0231183977        0.0000000000
C        -2.4255539940       -1.7470443880        0.0000000000
C        -5.2303153485       -1.9072792126        0.0000000000
C        -4.4638397164       -3.0578082972        0.0000000000
C        -3.0705712026       -2.9807160921        0.0000000000
C        -4.6097040525       -0.6470408478        0.0000000000
C        -3.2018182021       -0.5633127919        0.0000000000
C        -2.5670501157        0.7237272321        0.0000000000
C        -3.3538709912        1.8882403311        0.0000000000
C        -4.7857223367        1.7755764950        0.0000000000
C        -5.3871825893        0.5617778295        0.0000000000
H         4.7958811247        2.4474915010        0.0000000000
H         3.4042247504        4.5099255029        0.0000000000
H         0.9206535556        4.3450812079        0.0000000000
H        -0.6689716633       -3.7823308685        0.0000000000
H         1.8180552645       -3.6172000719        0.0000000000
H        -0.8591575868        4.2240455312        0.0000000000
H        -3.3390765812        4.0561243861        0.0000000000
H         3.5970560988       -3.4994127814        0.0000000000
H         6.0796724334       -3.3318379119        0.0000000000
H         7.1763520369       -1.0979553110        0.0000000000
H         5.7911601512        0.9686842241        0.0000000000
H        -6.3243765240       -1.9699534283        0.0000000000
H        -4.9487394736       -4.0396790497        0.0000000000
H        -2.4650049270       -3.9000853106        0.0000000000
H        -5.3770454357        2.6984607234        0.0000000000
H        -6.4796957595        0.4734723670        0.0000000000
