 52

C         4.9493523678       -1.1235205928        0.4690558426
C         5.0066739226       -2.4715809996        0.8139005931
C         3.8458175218       -3.2214597691        0.8819212618
C         2.6053593546       -2.6209172508        0.6226652229
C         1.3911998237       -3.3832832694        0.6985125293
C         0.1965883393       -2.8027160899        0.4515400167
C         0.0723648561       -1.4021377092        0.1385196384
C         1.2519242163       -0.6165478967        0.1049159873
C         1.1822323386        0.7852594395       -0.0649051865
C         3.7288672131       -0.5057631791        0.1998230119
C         2.5319430303       -1.2509666975        0.2964929379
C        -1.1822536032       -0.7850394036       -0.0646878871
C        -3.6584173252       -0.8794727788       -0.2350068725
C        -2.4073464550       -1.5015488859       -0.4079107383
C        -2.3854204205       -2.7820309101       -0.9909367433
C        -3.5514566494       -3.4490265079       -1.3158576973
C        -4.7900848872       -2.8541420861       -1.0699760274
C        -4.8378051027       -1.5787781719       -0.5428607841
C        -3.7289349466        0.5055246822        0.2001016085
C        -4.9494732050        1.1231096707        0.4694122418
C        -5.0069597664        2.4712031746        0.8141747980
C        -3.8462433754        3.2213072841        0.8818094263
C        -2.5321160894        1.2509887031        0.2963482367
C        -2.6057205127        2.6209535628        0.6223436699
C        -1.3916558118        3.3834719348        0.6978290105
C        -0.1969711442        2.8030104136        0.4509082519
C        -0.0724265271        1.4023893132        0.1382569903
C        -1.2519889464        0.6167821794        0.1047840149
C         3.6584612065        0.8792199544       -0.2353310968
C         2.4074818011        1.5015186788       -0.4082047087
C         2.3860131048        2.7824595957       -0.9903073649
C         3.5521962672        3.4493455150       -1.3148681941
C         4.7907054066        2.8539047640       -1.0695848273
C         4.8380508931        1.5783392138       -0.5429788618
H         5.8754595236       -0.5334193262        0.3930319762
H         5.9751366789       -2.9368978351        1.0248209445
H         3.8876987946       -4.2852341621        1.1418712113
H         1.4591079577       -4.4440673420        0.9663356691
H        -0.7214342499       -3.4037496046        0.5113798631
H        -1.4207996592       -3.2683943983       -1.1911323654
H        -3.5047716225       -4.4454166362       -1.7674828814
H        -5.7143248366       -3.3901706947       -1.3080426554
H        -5.8058874884       -1.0849955082       -0.3663721826
H        -5.8755074083        0.5328914546        0.3933939419
H        -5.9755162950        2.9364419903        1.0248357859
H        -3.8882365652        4.2852011487        1.1412498605
H        -1.4596858503        4.4444606011        0.9648149038
H         0.7207419136        3.4045933260        0.5100660035
H         1.4216467583        3.2697282964       -1.1895691922
H         3.5058589460        4.4462222062       -1.7654593138
H         5.7150124828        3.3900956473       -1.3070255354
H         5.8060141631        1.0844268317       -0.3661880240
