 48

C         7.1029687006       -1.6736273053        0.0000000000
C         7.7925254043       -0.4466880138        0.0000000000
C         7.0954925377        0.7373005099        0.0000000000
C         5.7295502563       -1.6960988741        0.0000000000
C         4.9885330037       -0.4911128746        0.0000000000
C         5.6812160079        0.7329444778        0.0000000000
C         4.9456574453        1.9610777439        0.0000000000
C         3.5888964364        1.9542323377        0.0000000000
C         3.5461073322       -0.4887143009        0.0000000000
C         2.8522556726        0.7255283050        0.0000000000
C         1.4537459140       -1.7117437967        0.0000000000
C         2.8156619902       -1.7106135019        0.0000000000
C         0.7199839816       -0.4908049974        0.0000000000
C         1.4168025705        0.7247958228        0.0000000000
C         0.6787633089        1.9475660847        0.0000000000
C        -0.6800463865        1.9471111291        0.0000000000
C        -0.7196258202       -0.4912917906        0.0000000000
C        -1.4172714015        0.7238417236        0.0000000000
C        -2.8144742909       -1.7125294576        0.0000000000
C        -1.4525544021       -1.7127258423        0.0000000000
C        -3.5457706135       -0.4911276743        0.0000000000
C        -2.8527339655        0.7235930021        0.0000000000
C        -3.5902152825        1.9518001459        0.0000000000
C        -4.9469691449        1.9577331459        0.0000000000
C        -4.9882159193       -0.4944905087        0.0000000000
C        -5.6817060308        0.7291178519        0.0000000000
C        -7.0959704288        0.7325646884        0.0000000000
C        -7.7922511244       -0.4518698824        0.0000000000
C        -7.1019164140       -1.6783584392        0.0000000000
C        -5.7284720072       -1.6999520226        0.0000000000
H         7.6712361603       -2.6094757707        0.0000000000
H         8.8873778008       -0.4456774381        0.0000000000
H         7.6252041654        1.6967132489        0.0000000000
H         5.1783069812       -2.6488149341        0.0000000000
H         5.5038989065        2.9043071465        0.0000000000
H         3.0183808475        2.8955446938        0.0000000000
H         0.8903946483       -2.6573413632        0.0000000000
H         3.3845885480       -2.6531812994        0.0000000000
H         1.2428935288        2.8927214639        0.0000000000
H        -1.2448028596        2.8918906896        0.0000000000
H        -3.3827315105       -2.6554987886        0.0000000000
H        -0.8885545087       -2.6579374769        0.0000000000
H        -3.0203343380        2.8934955727        0.0000000000
H        -5.5058415899        2.9005871838        0.0000000000
H        -7.6263020906        1.6916338252        0.0000000000
H        -8.8871043539       -0.4515373678        0.0000000000
H        -7.6695729731       -2.6145784161        0.0000000000
H        -5.1766483673       -2.6523312682        0.0000000000
