 48

C         3.1062488078        1.1842689835        0.0000000000
C         1.7683355596       -1.3040461150        0.0000000000
C         1.0820662876       -2.5315475165        0.0000000000
C        -2.5331249331        1.0558425114        0.0000000000
C        -2.6234626976        3.4815655273        0.0000000000
C        -3.2636295500        2.2796476600        0.0000000000
C        -1.1987921908        3.5429142414        0.0000000000
C         1.5929576714        3.6381979745        0.0000000000
C         0.8465963644        4.8285930905        0.0000000000
C        -0.5257914994        4.7877324092        0.0000000000
C         0.9665085091        2.4045982635        0.0000000000
C        -0.4556026903        2.3455129596        0.0000000000
C        -1.1411479656        1.0899867131        0.0000000000
C        -0.3746912081       -0.1326949081        0.0000000000
C         1.0398018300       -0.0965134300        0.0000000000
C         1.7400795705        1.1640444856        0.0000000000
C        -3.2299770082       -0.2147811134        0.0000000000
C        -4.6284038291       -0.2906917373        0.0000000000
C        -5.2720195143       -1.5194284834        0.0000000000
C        -4.5388641540       -2.7011487490        0.0000000000
C        -2.4793147871       -1.4108797187        0.0000000000
C        -3.1433791209       -2.6597487997        0.0000000000
C        -2.3616923744       -3.8731782774        0.0000000000
C        -1.0122175270       -3.8338835497        0.0000000000
C        -0.3029171979       -2.5763131929        0.0000000000
C        -1.0454555971       -1.3654865098        0.0000000000
C         3.8706805209       -0.0239381244        0.0000000000
C         3.2140176804       -1.2668962850        0.0000000000
C         3.9866861339       -2.4487934357        0.0000000000
C         5.3609043882       -2.3881918257        0.0000000000
C         6.0145625430       -1.1438919735        0.0000000000
C         5.2832121231        0.0209531845        0.0000000000
H         3.6394519803        2.1490776168        0.0000000000
H         1.6692047744       -3.4642249112        0.0000000000
H        -3.1904401448        4.4195031456        0.0000000000
H        -4.3631986968        2.2227135826        0.0000000000
H         2.6930553305        3.6834481844        0.0000000000
H         1.3732282165        5.7886480856        0.0000000000
H        -1.1140286991        5.7123080222        0.0000000000
H        -5.2102403366        0.6437576508        0.0000000000
H        -6.3664120307       -1.5590485956        0.0000000000
H        -5.0548688380       -3.6679356670        0.0000000000
H        -2.8994470475       -4.8283625474        0.0000000000
H        -0.4194307868       -4.7558671010        0.0000000000
H         3.4634778517       -3.4172333309        0.0000000000
H         5.9540507146       -3.3084824357        0.0000000000
H         7.1089384013       -1.1105130664        0.0000000000
H         5.7865476957        0.9944552037        0.0000000000
