 50

C         2.9667901432        0.2129519721        0.1255101790
C         2.5982012443       -1.1460071883        0.0044509562
C         3.5964603992       -2.1415462176        0.0009449800
C         4.9408070188       -1.7731551932        0.1314011694
C         5.3008433322       -0.4404421704        0.2584465628
C         4.3267771653        0.5651131082        0.2528110597
C         1.2133792327       -1.4983721055       -0.1115601908
C         0.8541170810       -2.8815501909       -0.2287050819
C         1.9071452510       -3.8743294660       -0.2536697754
C         3.2052797997       -3.5249778563       -0.1408406284
C         0.2267988266       -0.5127796251       -0.1015418713
C        -1.1610312434       -0.8627542933       -0.1489819727
C        -1.4949383419       -2.2444222656       -0.2276540023
C        -0.4693045468       -3.2329599272       -0.2988196410
C        -2.1747164918        0.1220967866       -0.0791308823
C        -3.5094715551       -0.3039097468        0.1385920212
C        -3.8349198811       -1.6846150762        0.0069175684
C        -2.8352653836       -2.6315418097       -0.2144462631
C        -5.1962802721       -2.1173032225        0.1299297483
C        -6.1785993162       -1.2377371133        0.4590916382
C        -5.8494507471        0.1234702493        0.7022803036
C        -4.5721021342        0.5668888547        0.5466630057
C         1.9548543345        1.2243758687        0.1000418586
C         0.6054006105        0.8700261367       -0.0137083313
C        -0.3931677104        1.8747200980       -0.1015512134
C        -1.7757604981        1.5249150492       -0.2290908011
C         0.0065609513        3.2316207767       -0.1255713869
C        -0.9630241392        4.2388740879       -0.3646685740
C        -2.2619778501        3.8840766357       -0.6116446943
C        -2.6631129764        2.5357488792       -0.5520047676
C         2.3343579458        2.5988183037        0.1647012676
C         1.3695248710        3.5770479638        0.0469084234
C         4.6784126745        1.9600860167        0.3672794216
C         3.7337764153        2.9244332632        0.3233244802
H         3.9980841755       -4.2817807211       -0.1544517682
H         1.6126425301       -4.9245971662       -0.3627218595
H        -0.7607239121       -4.2868073028       -0.3907193667
H        -3.1000339877       -3.6891354634       -0.3392833815
H        -5.4215657047       -3.1771600800       -0.0364276921
H        -7.2198599519       -1.5605926378        0.5575466556
H        -6.6410545508        0.8076148456        1.0256240455
H        -4.3428585241        1.6200209862        0.7599109648
H         6.3572653934       -0.1668357848        0.3609042986
H         5.7141222265       -2.5500052088        0.1317962770
H        -3.7175087474        2.3088076149       -0.7612577792
H        -3.0101310399        4.6481263849       -0.8486029056
H        -0.6528438242        5.2897470231       -0.3749145620
H         1.6505996646        4.6372558754        0.0698822052
H         4.0044339110        3.9835945322        0.4038185359
H         5.7383768382        2.2126056469        0.4863144887
