 50

C        -5.0929914984        1.1537528952        0.0000000000
C        -5.5800903465       -0.1269133154        0.0000000000
C        -4.7006202393       -1.2273048138        0.0000000000
C        -3.6920545564        1.3875104067        0.0000000000
C        -3.1753922022        2.7057714061        0.0000000000
C        -1.8138178703        2.9289890082        0.0000000000
C         0.0625029326        4.4824519856        0.0000000000
C        -1.2701960887        4.2683932535        0.0000000000
C         0.9960173335        3.3815048378        0.0000000000
C         3.2561457786        2.5313791113        0.0000000000
C         2.3769849484        3.6016256549        0.0000000000
C         0.5042432927        2.0590206971        0.0000000000
C        -0.9102052497        1.8228887507        0.0000000000
C        -1.4039289317        0.5155950525        0.0000000000
C        -2.8066813625        0.2858732469        0.0000000000
C        -3.3329516213       -1.0405277362        0.0000000000
C        -2.4093305638       -2.1713038911        0.0000000000
C        -2.8687468277       -3.4744928947        0.0000000000
C        -1.9699766282       -4.5570739137        0.0000000000
C        -0.6160011357       -4.3378310306        0.0000000000
C        -1.0051058832       -1.9249453435        0.0000000000
C        -0.1079122197       -3.0137634852        0.0000000000
C         1.2883580027       -2.7682929531        0.0000000000
C        -0.4893039637       -0.5970360347        0.0000000000
C         0.8901441985       -0.3752079035        0.0000000000
C         1.7903830201       -1.4857888354        0.0000000000
C         2.7919378661        1.2104219313        0.0000000000
C         1.4044028901        0.9675703377        0.0000000000
C         3.7171384728        0.0849859345        0.0000000000
C         3.2275053971       -1.2327927335        0.0000000000
C         4.1387945153       -2.3012210902        0.0000000000
C         5.5025508529       -2.0722590708        0.0000000000
C         5.9885757350       -0.7636279820        0.0000000000
C         5.1050484248        0.2999562095        0.0000000000
H        -5.7739584955        2.0124042835        0.0000000000
H        -6.6596819680       -0.3103067399        0.0000000000
H        -5.1033154588       -2.2520850064        0.0000000000
H        -3.8743165193        3.5513911910        0.0000000000
H         0.4713735435        5.4995142584        0.0000000000
H        -1.9768519458        5.1064016776        0.0000000000
H         4.3425529233        2.7105775413        0.0000000000
H         2.7626386897        4.6275410875        0.0000000000
H        -3.9539193475       -3.6610318158        0.0000000000
H        -2.3666580799       -5.5777457574        0.0000000000
H         0.0877927293       -5.1777653770        0.0000000000
H         1.9824387966       -3.6243710506        0.0000000000
H         3.7478580888       -3.3304090594        0.0000000000
H         6.2013335413       -2.9150363036        0.0000000000
H         7.0681001961       -0.5813823759        0.0000000000
H         5.4804353303        1.3348579039        0.0000000000
