 48

C         0.2676630081        1.7816641814        0.0000000000
C        -1.1048137067        1.3391383395        0.0000000000
C        -2.1511902447        2.2316864287        0.0000000000
C        -3.4988990405        1.7735337964        0.0000000000
C        -4.5854530621        2.6761676051        0.0000000000
C        -5.8803936235        2.2062700072        0.0000000000
C        -6.1463825325        0.8292160048        0.0000000000
C         0.5372321199       -3.2891377525        0.0000000000
C         1.8293933919       -2.8280816565        0.0000000000
C        -0.5464097689       -2.3803882826        0.0000000000
C        -0.2760625359       -0.9940429571        0.0000000000
C        -1.3607466138       -0.0714764400        0.0000000000
C        -1.8922006548       -2.8400721101        0.0000000000
C        -2.9397920258       -1.9498850941        0.0000000000
C        -2.6794970961       -0.5407838838        0.0000000000
C        -3.7617973196        0.3856298045        0.0000000000
C        -5.1033840709       -0.0837369910        0.0000000000
C        -5.3396154713       -1.5117143960        0.0000000000
C        -4.3187076536       -2.3924837377        0.0000000000
C         1.0681288901       -0.5256955516        0.0000000000
C         2.1165528018       -1.4438841880        0.0000000000
C         1.3087952909        0.9067142939        0.0000000000
C         3.5003156695       -0.9771989571        0.0000000000
C         4.5602242627       -1.8616735292        0.0000000000
C         5.8901369053       -1.3992323763        0.0000000000
C         6.1570585347       -0.0554839918        0.0000000000
C         2.6936361421        1.3773903978        0.0000000000
C         3.7576024483        0.4261834623        0.0000000000
C         5.0929939255        0.8836495402        0.0000000000
C         5.3580266184        2.2794442302        0.0000000000
C         4.3242775384        3.1765155843        0.0000000000
C         2.9889927440        2.7252361982        0.0000000000
H         0.4640190815        2.8665159222        0.0000000000
H        -1.9610877987        3.3119894862        0.0000000000
H        -4.3850239017        3.7535483509        0.0000000000
H        -6.7185466767        2.9112974904        0.0000000000
H        -7.1842662734        0.4775668526        0.0000000000
H         0.3314929323       -4.3656347997        0.0000000000
H         2.6736136743       -3.5351471920        0.0000000000
H        -2.0811156277       -3.9206878990        0.0000000000
H        -6.3809531603       -1.8540977472        0.0000000000
H        -4.5051094433       -3.4727220484        0.0000000000
H         4.3621631988       -2.9445612057        0.0000000000
H         6.7068625676       -2.1286332604        0.0000000000
H         7.1895514434        0.3117882273        0.0000000000
H         6.3991772315        2.6213941620        0.0000000000
H         4.5209093313        4.2537023567        0.0000000000
H         2.1675807047        3.4584130273        0.0000000000
