 48

C         0.0898388130        2.5046373997        0.0000000000
C         0.3840136128        3.8566291422        0.0000000000
C        -0.6390070661        4.8193112872        0.0000000000
C        -1.9561004388        4.4312802696        0.0000000000
C        -1.2703066002        2.0851163029        0.0000000000
C        -2.2913337187        3.0565408946        0.0000000000
C        -3.6543986842        2.6379190983        0.0000000000
C        -3.9704989292        1.3136506286        0.0000000000
C        -2.9554255131        0.3125327630        0.0000000000
C        -1.6176349417        0.6962380277        0.0000000000
C        -2.2920307270       -2.0676217944        0.0000000000
C        -3.3054498828       -1.0932085925        0.0000000000
C        -4.6540834691       -1.5063038694        0.0000000000
C        -4.9850704458       -2.8432914725        0.0000000000
C        -3.9747215589       -3.8146912379        0.0000000000
C        -2.6517240515       -3.4311777583        0.0000000000
C         1.1520165545        1.5011343512        0.0000000000
C         2.4701333754        1.8647458737        0.0000000000
C         0.7851391710        0.1057445916        0.0000000000
C        -0.5715003702       -0.2966932586        0.0000000000
C        -0.8984513247       -1.6647086097        0.0000000000
C         0.1279698722       -2.6259355782        0.0000000000
C         3.5171400765        0.8893623854        0.0000000000
C         5.5308844446       -1.0638757567        0.0000000000
C         5.8597118353        0.2915888326        0.0000000000
C         4.8709173411        1.2612251068        0.0000000000
C         4.1957051920       -1.4625606892        0.0000000000
C         3.1760500199       -0.4801126222        0.0000000000
C         1.7994539510       -0.8690598105        0.0000000000
C         1.4613083543       -2.2486550464        0.0000000000
C         2.5220421327       -3.2288950070        0.0000000000
C         3.8202123108       -2.8564181980        0.0000000000
H         1.4371073342        4.1780320348        0.0000000000
H        -0.3730205050        5.8815045826        0.0000000000
H        -2.7596845647        5.1763695997        0.0000000000
H        -4.4397021040        3.4024858531        0.0000000000
H        -5.0214261009        0.9860819061        0.0000000000
H        -5.4417120154       -0.7374868767        0.0000000000
H        -6.0353628321       -3.1523338767        0.0000000000
H        -4.2421015267       -4.8763446756        0.0000000000
H        -1.8522807686       -4.1877913474        0.0000000000
H         2.7425503147        2.9327917343        0.0000000000
H        -0.1440606040       -3.6937083324        0.0000000000
H         6.3250603136       -1.8189884022        0.0000000000
H         6.9135783556        0.5897404987        0.0000000000
H         5.1387813606        2.3237688205        0.0000000000
H         2.2387219395       -4.2877936066        0.0000000000
H         4.6229285059       -3.6027633926        0.0000000000
