 52

C         5.0457364712       -1.6758331753       -0.8506110249
C         5.7138376295       -0.5667071371       -0.4095162883
C         3.6390882799       -1.7448949570       -0.7778468117
C         4.9782104115        0.5626167735        0.0353615367
C         5.6431217332        1.7542035023        0.4268520869
C         4.9210311974        2.8721878755        0.7520564318
C         3.5157383591        2.8581697425        0.6642196645
C         2.8866237743       -0.7083357478       -0.2603450030
C         3.5678934751        0.5112626113        0.0483787376
C         2.8423797174        1.7059520670        0.3106130168
C         1.3958821857        1.6907817727        0.1324141427
C         0.6974630850        2.8727559302        0.0930521587
C        -0.6973359498        2.8728004827       -0.0940318220
C         0.7119077998        0.4327940966        0.0061642670
C         1.4325617823       -0.7791936730       -0.0659200437
C         0.7131403942       -1.9918954233        0.0251192368
C        -0.7133182762       -1.9917649656       -0.0252237759
C        -1.3647288348       -3.2561628607       -0.2186510616
C        -0.6945547402       -4.4362535950       -0.1496084713
C         0.6934713629       -4.4365205141        0.1478170278
C         1.3640350561       -3.2566906585        0.2176414671
C        -0.7117667225        0.4328968957       -0.0063093889
C        -1.3957770183        1.6908299637       -0.1328943797
C        -1.4325182808       -0.7789748987        0.0660837605
C        -2.8864844848       -0.7080772372        0.2608809945
C        -5.7135559133       -0.5665219963        0.4106666236
C        -5.0453012957       -1.6753721322        0.8522718571
C        -3.6386851064       -1.7444579598        0.7791699554
C        -3.5678097885        0.5113857960       -0.0481140267
C        -2.8423125966        1.7059612751       -0.3109290293
C        -3.5157272532        2.8580445659       -0.6648202347
C        -4.9210431771        2.8719886723       -0.7523882435
C        -5.6430807662        1.7541326069       -0.4266389651
C        -4.9781252994        0.5626822431       -0.0348271643
H         5.5961401171       -2.5339802620       -1.2507955530
H         6.8085451539       -0.5229794368       -0.4185062064
H         3.1561122095       -2.6668172533       -1.1292187876
H         6.7385275397        1.7647490548        0.4555233142
H         5.4268036543        3.7925347630        1.0618534658
H         2.9442659595        3.7796490598        0.8537760152
H         1.2333014475        3.8273367386        0.2106472008
H        -1.2331285694        3.8273513986       -0.2120316281
H        -2.4408002552       -3.2643558551       -0.4406521799
H        -1.2086352227       -5.3890477091       -0.3114685230
H         1.2073444222       -5.3895825132        0.3087812966
H         2.4402332637       -3.2657913376        0.4390314736
H        -6.8082615662       -0.5227960184        0.4199417342
H        -5.5955593491       -2.5333004487        1.2531264187
H        -3.1551672017       -2.6658131285        1.1312508340
H        -2.9442779212        3.7794409687       -0.8548292064
H        -5.4269174772        3.7922268988       -1.0623428894
H        -6.7384929953        1.7646830818       -0.4551254232
