 48

C         7.0343175547       -2.2342357836        0.0000000000
C         7.7658914579       -1.0183158699        0.0000000000
C         7.1152940304        0.1815802765        0.0000000000
C         5.6694239818       -2.2213751721        0.0000000000
C         4.9611989814       -0.9836012582        0.0000000000
C         5.6898774940        0.2279089622        0.0000000000
C         4.9951463086        1.4546461699        0.0000000000
C         3.5525270279       -0.9448659597        0.0000000000
C         2.8742960739        0.2616011039        0.0000000000
C         3.6113299959        1.4813070540        0.0000000000
C         2.9000005033        2.7415015330        0.0000000000
C         1.5538592577        2.7850204240        0.0000000000
C         1.4177413551        0.3121644805        0.0000000000
C         0.7647064377        1.5726257503        0.0000000000
C        -0.6217489115        1.6338638641        0.0000000000
C         0.6546102900       -0.8473647943        0.0000000000
C        -0.7483859240       -0.7898409276        0.0000000000
C        -1.3993161907        0.4636198314        0.0000000000
C        -2.8845524575       -1.9339796893        0.0000000000
C        -1.5298246018       -1.9913058622        0.0000000000
C        -3.5739565215       -0.6777658425        0.0000000000
C        -2.8428306203        0.5097477151        0.0000000000
C        -3.5303618413        1.7622412716        0.0000000000
C        -4.8882761779        1.8175650453        0.0000000000
C        -5.0127085576       -0.6309229305        0.0000000000
C        -5.6632528440        0.6171653013        0.0000000000
C        -7.0783893096        0.6698834932        0.0000000000
C        -7.8152543128       -0.4879317877        0.0000000000
C        -7.1679206084       -1.7395102467        0.0000000000
C        -5.7976349524       -1.8101196235        0.0000000000
H         7.5833198452       -3.1815738870        0.0000000000
H         8.8600328369       -1.0596689921        0.0000000000
H         7.6725358709        1.1251535068        0.0000000000
H         5.0966046384       -3.1555042123        0.0000000000
H         5.5650577920        2.3921304876        0.0000000000
H         2.9786911428       -1.8857233372        0.0000000000
H         3.4949700230        3.6623240891        0.0000000000
H         1.0189910016        3.7419062526        0.0000000000
H        -1.1352418468        2.6089292398        0.0000000000
H         1.1651409879       -1.8241922750        0.0000000000
H        -3.4937670932       -2.8510135666        0.0000000000
H        -1.0064165738       -2.9542228470        0.0000000000
H        -2.9238322231        2.6810156112        0.0000000000
H        -5.4120592830        2.7803013272        0.0000000000
H        -7.5737741072        1.6474731153        0.0000000000
H        -8.9094450003       -0.4499458977        0.0000000000
H        -7.7693539061       -2.6544112760        0.0000000000
H        -5.2805960979       -2.7817631793        0.0000000000
