 48

C         1.0837275952       -0.8867600790        0.0148050816
C         2.3483171097        1.6724365713        0.1955804894
C         2.9513820828        2.9237603502        0.4106827301
C         2.1839005672        4.0670576402        0.5075831307
C         0.7985215674        3.9875629559        0.3741800669
C         0.3214231894        0.2774539462        0.0260251699
C         0.9469612633        1.5762167188        0.1190992297
C         0.1720263533        2.7605804296        0.1781862574
C         3.1471788536        0.4833432457       -0.0183504684
C         2.5212228845       -0.7676438060       -0.1827708793
C         3.3235874829       -1.8466422147       -0.6121704189
C         4.6875336180       -1.7204412886       -0.7635533438
C         5.3140463192       -0.4982778431       -0.4937793744
C         4.5479154446        0.5892103272       -0.1387208131
C        -1.2769003607        2.6899326994        0.0286128231
C        -2.0573066469        3.8304054488       -0.0110435882
C        -3.4519006475        3.7454620127       -0.1665704837
C        -4.0647085218        2.5228260857       -0.2734612723
C        -1.8934471640        1.4120426029       -0.0810979765
C        -3.2964897450        1.3325186039       -0.2252323604
C        -3.9253970916        0.0640177719       -0.3079168954
C        -1.1156230940        0.2182531429       -0.0382902785
C         0.4111582197       -2.1590236021        0.1948527302
C        -0.9605278655       -4.6243157111        0.4403347203
C         0.4111304369       -4.5475505447        0.6771505594
C         1.0796560006       -3.3442552043        0.5570823212
C        -1.6715404319       -3.4668094103        0.1476665495
C        -0.9969156618       -2.2206294488        0.0701097898
C        -1.7595840565       -1.0206917474       -0.0838086987
C        -3.1822012987       -1.0904253722       -0.2242055361
C        -3.8175594849       -2.3898659619       -0.2501822009
C        -3.1014089465       -3.5154400831       -0.0634673956
H         4.0476120282        2.9812579671        0.4886234062
H         2.6591414321        5.0385902642        0.6778820703
H         0.1857989757        4.9010362355        0.4219273912
H         2.8549193408       -2.8142189705       -0.8380257377
H         5.2850502756       -2.5747675310       -1.0983664244
H         6.4012569614       -0.4087271803       -0.5838947239
H         5.0218384559        1.5660546371        0.0427050391
H        -1.5773133899        4.8167851902        0.0816955986
H        -4.0421073978        4.6671960609       -0.2000985972
H        -5.1515839074        2.4502267421       -0.3937163357
H        -5.0152568790        0.0173487323       -0.4245563349
H        -1.4763561731       -5.5890020115        0.5030080380
H         0.9622943318       -5.4506973479        0.9602934115
H         2.1603719059       -3.3213663633        0.7530282608
H        -4.9008586945       -2.4261163746       -0.4132963330
H        -3.5829273749       -4.5002389311       -0.0644818019
