 48

C         0.5100230903        1.8254171569        0.0000000000
C        -0.4681930925       -3.1587323003        0.0000000000
C        -1.7185693343       -2.5170962369        0.0000000000
C        -4.1441300637       -2.6489787013        0.0000000000
C        -2.9362410602       -3.2720692385        0.0000000000
C        -4.2313400458       -1.2214406571        0.0000000000
C        -5.5801549179        0.7919768598        0.0000000000
C        -5.5004433655       -0.5661597947        0.0000000000
C        -4.3969764437        1.5959212090        0.0000000000
C        -2.0656294922        3.1407567377        0.0000000000
C        -3.3245170721        3.7611013673        0.0000000000
C        -4.4744750870        3.0068146932        0.0000000000
C        -1.9538322768        1.7602573232        0.0000000000
C        -3.1353097395        0.9700635342        0.0000000000
C        -3.0627965158       -0.4598174182        0.0000000000
C        -1.7834784316       -1.1068705317        0.0000000000
C        -0.5959745587       -0.3417817347        0.0000000000
C        -0.6467962642        1.1042879796        0.0000000000
C         1.7989602698        1.1890936470        0.0000000000
C         2.9657261748        1.9309140127        0.0000000000
C         3.1042381251       -0.8887923579        0.0000000000
C         1.8648794371       -0.2371137728        0.0000000000
C         0.6479172435       -0.9945390173        0.0000000000
C         0.7050844926       -2.4165199702        0.0000000000
C         1.9953138002       -3.0561260419        0.0000000000
C         3.1348367942       -2.3268809265        0.0000000000
C         4.2248015457        1.2906286348        0.0000000000
C         4.3043503450       -0.1204758693        0.0000000000
C         5.5881952589       -0.7349481480        0.0000000000
C         6.7258934488        0.0217925617        0.0000000000
C         6.6443395561        1.4356319371        0.0000000000
C         5.4270144343        2.0558866137        0.0000000000
H         0.4661929264        2.9269602290        0.0000000000
H        -0.4242970899       -4.2548793857        0.0000000000
H        -5.0747860784       -3.2280190459        0.0000000000
H        -2.8690282995       -4.3661143091        0.0000000000
H        -6.5528653479        1.2971677062        0.0000000000
H        -6.4070746555       -1.1820630062        0.0000000000
H        -1.1503042525        3.7526847147        0.0000000000
H        -3.3808423207        4.8546954895        0.0000000000
H        -5.4587294603        3.4885776996        0.0000000000
H         2.9230537163        3.0271460417        0.0000000000
H         2.0276096856       -4.1517374426        0.0000000000
H         4.1242443570       -2.8099969557        0.0000000000
H         5.6334576910       -1.8348074149        0.0000000000
H         7.7117061820       -0.4545338063        0.0000000000
H         7.5692841489        2.0215106527        0.0000000000
H         5.3546318586        3.1494928687        0.0000000000
