 48

C        -0.7155797701       -0.5412395511        0.0000000000
C        -1.4270496041       -1.7493301442        0.0000000000
C        -0.7128289281       -2.9662077797        0.0000000000
C         0.6599714185       -2.9784113433        0.0000000000
C         0.7058232828       -0.5538875549        0.0000000000
C         1.3956983889       -1.7744344315        0.0000000000
C         1.4394262464        0.6867046002        0.0000000000
C         2.8381443326        0.6876117915        0.0000000000
C         3.5299709849        1.9231417761        0.0000000000
C         2.8539743757        3.1152714599        0.0000000000
C         0.7335705848        1.9217350276        0.0000000000
C         1.4393905096        3.1357366307        0.0000000000
C         0.7181252683        4.3724979662        0.0000000000
C        -0.6401548932        4.3845905252        0.0000000000
C        -0.6992536529        1.9344817053        0.0000000000
C        -1.3833351853        3.1608689952        0.0000000000
C        -2.7980517612        3.1656069363        0.0000000000
C        -3.4951838522        1.9856983137        0.0000000000
C        -2.8254878053        0.7380132659        0.0000000000
C        -1.4269899981        0.7122069623        0.0000000000
C        -2.8771162994       -1.7331316291        0.0000000000
C        -3.5665802453       -0.5078373708        0.0000000000
C        -4.9761716664       -0.5130716678        0.0000000000
C        -5.6788672617       -1.6983929316        0.0000000000
C        -4.9918912565       -2.9196843120        0.0000000000
C        -3.6139818554       -2.9348385373        0.0000000000
C         3.5569423316       -0.5711956076        0.0000000000
C         2.8458087443       -1.7840242832        0.0000000000
C         3.5611865872       -2.9986311343        0.0000000000
C         4.9391495960       -3.0079706455        0.0000000000
C         5.6477265298       -1.7990767638        0.0000000000
C         4.9661982808       -0.6014562559        0.0000000000
H        -1.2803898561       -3.9095150233        0.0000000000
H         1.2106740109       -3.9316602075        0.0000000000
H         4.6307773570        1.9037336372        0.0000000000
H         3.4008793112        4.0650509234        0.0000000000
H         1.2895058249        5.3078300041        0.0000000000
H        -1.1947885725        5.3299497066        0.0000000000
H        -3.3279535221        4.1249768066        0.0000000000
H        -4.5961607103        1.9858976802        0.0000000000
H        -5.5062443701        0.4516846985        0.0000000000
H        -6.7736514018       -1.6911502736        0.0000000000
H        -5.5542425780       -3.8590289283        0.0000000000
H        -3.0651700779       -3.8890735899        0.0000000000
H         2.9955033370       -3.9429644064        0.0000000000
H         5.4847301811       -3.9571532770        0.0000000000
H         6.7424660352       -1.8113101924        0.0000000000
H         5.5133046079        0.3537490830        0.0000000000
