 50

C         6.7262547957       -2.6394539116        0.0000000000
C         6.9552124385       -1.2791312033        0.0000000000
C         4.3462221846       -2.2612774127        0.0000000000
C         5.4145157059       -3.1331483732        0.0000000000
C         4.5582718284       -0.8693828668        0.0000000000
C         5.8744140709       -0.3767594850        0.0000000000
C         6.1078585438        1.0457682907        0.0000000000
C         5.0779541190        1.9191083631        0.0000000000
C         3.4455288721        0.0628897526        0.0000000000
C         3.7112117903        1.4573980408        0.0000000000
C         2.6545985930        2.3621864749        0.0000000000
C         2.1270561358       -0.3797052234        0.0000000000
C         1.0562408586        0.5232736430        0.0000000000
C         1.3252857077        1.9133392278        0.0000000000
C         0.2415366354        2.8470103696        0.0000000000
C        -1.0558170878        2.4165383414        0.0000000000
C        -2.1605242222        3.3576575962        0.0000000000
C        -3.4390917614        2.9409605130        0.0000000000
C        -3.7765315497        1.5296695289        0.0000000000
C        -5.0807348615        1.1118955728        0.0000000000
C        -0.3139257008        0.0710566409        0.0000000000
C        -1.3528343354        1.0072752055        0.0000000000
C        -2.7095371605        0.5671120710        0.0000000000
C        -3.0007988754       -0.8032806385        0.0000000000
C        -1.9287119008       -1.7373280060        0.0000000000
C        -0.6309386794       -1.3147616427        0.0000000000
C        -4.3721051031       -1.2385408590        0.0000000000
C        -5.4014842657       -0.2778207607        0.0000000000
C        -6.7527422388       -0.7046357765        0.0000000000
C        -7.0582521559       -2.0426153199        0.0000000000
C        -6.0294022914       -3.0054210990        0.0000000000
C        -4.7145664905       -2.6121381304        0.0000000000
H         7.5676270779       -3.3400763374        0.0000000000
H         7.9795815942       -0.8894833175        0.0000000000
H         3.3099756222       -2.6331667707        0.0000000000
H         5.2427959004       -4.2144327299        0.0000000000
H         7.1464661694        1.3962514433        0.0000000000
H         5.2543825788        3.0009967859        0.0000000000
H         2.8595805013        3.4401255130        0.0000000000
H         1.9180531374       -1.4668838484        0.0000000000
H         0.4748421314        3.9191282260        0.0000000000
H        -1.9145471297        4.4260643810        0.0000000000
H        -4.2675200953        3.6590644504        0.0000000000
H        -5.9007304774        1.8408341397        0.0000000000
H        -2.1786829913       -2.8095345445        0.0000000000
H         0.2021305708       -2.0347109833        0.0000000000
H        -7.5481610400        0.0493466647        0.0000000000
H        -8.1019781675       -2.3734229767        0.0000000000
H        -6.2894190646       -4.0689590869        0.0000000000
H        -3.8988789326       -3.3513601252        0.0000000000
