 50

C        -0.0831634301       -2.5640746324        0.0000000000
C        -2.7957317526       -3.2573882682        0.0000000000
C        -1.8167387167       -4.2562630251        0.0000000000
C        -0.4825544453       -3.9169039802        0.0000000000
C         2.4403800277        1.9160972798        0.0000000000
C         2.7957569087        3.2573261697        0.0000000000
C         1.8167617414        4.2562210764        0.0000000000
C         0.4825916860        3.9168811889        0.0000000000
C         0.6739575348        0.1733248651        0.0000000000
C         1.0667814502        1.5539377785        0.0000000000
C         0.0831616506        2.5640509168        0.0000000000
C        -1.0667933104       -1.5539558387        0.0000000000
C        -0.6739653066       -0.1733332637        0.0000000000
C        -2.4403953728       -1.9161134897        0.0000000000
C        -3.4619116473       -0.8737422196        0.0000000000
C        -5.4165593320        1.1446900288        0.0000000000
C        -5.7864211979       -0.1803714599        0.0000000000
C        -4.8118303440       -1.1881224897        0.0000000000
C        -1.6784622194        0.8534632811        0.0000000000
C        -1.3118136884        2.1989246536        0.0000000000
C        -2.3293431934        3.2019262862        0.0000000000
C        -3.6472281745        2.8690899669        0.0000000000
C        -4.0496426921        1.4982409609        0.0000000000
C        -3.0644651251        0.4902173284        0.0000000000
C         3.4618837442        0.8737271009        0.0000000000
C         5.4165706927       -1.1446171866        0.0000000000
C         5.7863735381        0.1804302209        0.0000000000
C         4.8117626380        1.1881543906        0.0000000000
C         4.0496452227       -1.4981880188        0.0000000000
C         3.0644377759       -0.4902236307        0.0000000000
C         1.6784438633       -0.8534985372        0.0000000000
C         1.3118346566       -2.1989539752        0.0000000000
C         2.3293985549       -3.2019213903        0.0000000000
C         3.6472695598       -2.8690423642        0.0000000000
H        -3.8620179859       -3.5315345784        0.0000000000
H        -2.1192497753       -5.3086046641        0.0000000000
H         0.2934767982       -4.6973392405        0.0000000000
H         3.8620396617        3.5314848893        0.0000000000
H         2.1194459863        5.3085129236        0.0000000000
H        -0.2934511728        4.6973072389        0.0000000000
H        -6.1743831979        1.9362705362        0.0000000000
H        -6.8453553416       -0.4591891825        0.0000000000
H        -5.1176015205       -2.2457868276        0.0000000000
H        -2.0140395232        4.2566171786        0.0000000000
H        -4.4229594828        3.6433548236        0.0000000000
H         6.1743211167       -1.9362612983        0.0000000000
H         6.8452596588        0.4594248741        0.0000000000
H         5.1175196857        2.2458224050        0.0000000000
H         2.0141279812       -4.2566221227        0.0000000000
H         4.4229707365       -3.6433345887        0.0000000000
