 46

C        -3.6537321111       -2.8441668506        0.0000000000
C        -2.4821432801       -3.5271106525        0.0000000000
C        -1.2179494667       -2.8398977863        0.0000000000
C        -0.0033651437       -3.5325193306        0.0000000000
C         1.2125202187       -2.8422194827        0.0000000000
C         2.4754160810       -3.5318448474        0.0000000000
C         3.6483035606       -2.8511310556        0.0000000000
C        -3.6771241436       -1.4073642557        0.0000000000
C        -4.8887595805        0.6924712014        0.0000000000
C        -4.8900757522       -0.6831375197        0.0000000000
C        -2.4606369884       -0.7079757845        0.0000000000
C        -1.2193681884       -1.4242744410        0.0000000000
C        -0.0006823668       -0.7197060576        0.0000000000
C         1.2166471476       -1.4265874530        0.0000000000
C         3.6536942498        2.8441834725        0.0000000000
C         2.4821055028        3.5270899507        0.0000000000
C         1.2193498059        1.4242575653        0.0000000000
C         1.2179262362        2.8398728149        0.0000000000
C         0.0033691494        3.5325010521        0.0000000000
C         0.0006775696        0.7196984871        0.0000000000
C        -1.2166453033        1.4265823018        0.0000000000
C        -1.2125195917        2.8421929345        0.0000000000
C        -2.4753773471        3.5318242194        0.0000000000
C        -3.6482632078        2.8511287052        0.0000000000
C        -3.6744198216        1.4143824507        0.0000000000
C        -2.4592806239        0.7126681826        0.0000000000
C         2.4606322489        0.7079837862        0.0000000000
C         2.4592927570       -0.7126613244        0.0000000000
C         3.6744560519       -1.4143661700        0.0000000000
C         4.8887675010       -0.6924480119        0.0000000000
C         4.8900707476        0.6831830179        0.0000000000
C         3.6771189281        1.4073864928        0.0000000000
H        -4.6129232428       -3.3746874797        0.0000000000
H        -2.4714627023       -4.6231951334        0.0000000000
H        -0.0044222623       -4.6294672528        0.0000000000
H         2.4626307023       -4.6279072126        0.0000000000
H         4.6064834561       -3.3834785540        0.0000000000
H        -5.8349646101        1.2457324941        0.0000000000
H        -5.8373278586       -1.2346035683        0.0000000000
H         4.6128755865        3.3747168370        0.0000000000
H         2.4713892542        4.6231749747        0.0000000000
H         0.0043848343        4.6294470815        0.0000000000
H        -2.4626021226        4.6278850925        0.0000000000
H        -4.6064358317        3.3834891589        0.0000000000
H         5.8349861062       -1.2456917083        0.0000000000
H         5.8373310744        1.2346375220        0.0000000000
