 48

C        -3.0045401062       -3.1096245771        0.0000000000
C        -2.1410265417       -4.2185859645        0.0000000000
C        -0.7802121321       -4.0396210496        0.0000000000
C        -0.2341814945       -2.7324336859        0.0000000000
C         1.1705272486       -2.5307381908        0.0000000000
C        -0.8855897711        2.1294439288        0.0000000000
C        -1.7738157024        3.2472306257        0.0000000000
C        -3.1231414519        3.0751650608        0.0000000000
C        -3.6876762994        1.7636997369        0.0000000000
C        -5.0883060234        1.5765370128        0.0000000000
C        -5.6152432206        0.3065225649        0.0000000000
C        -4.7688976604       -0.8124399765        0.0000000000
C        -1.4121638707        0.8400564045        0.0000000000
C        -2.8311687142        0.6444214033        0.0000000000
C        -3.3921613011       -0.6622166990        0.0000000000
C        -2.5045065200       -1.8203378061        0.0000000000
C        -1.0951370659       -1.6157006105        0.0000000000
C        -0.5373129784       -0.3022968562        0.0000000000
C         0.5463147989        2.3223535546        0.0000000000
C         3.3215712224        2.6838139726        0.0000000000
C         2.4713931210        3.7913090649        0.0000000000
C         1.1038998293        3.6149938939        0.0000000000
C         2.8073333628        1.3926128648        0.0000000000
C         1.4020220707        1.2008675273        0.0000000000
C         0.8482780653       -0.1247519045        0.0000000000
C         1.7120785747       -1.2667753072        0.0000000000
C         3.6930521949        0.2329828807        0.0000000000
C         3.1581086042       -1.0659763575        0.0000000000
C         4.0306085411       -2.1655883262        0.0000000000
C         5.4023171321       -1.9852626055        0.0000000000
C         5.9335802844       -0.6953081217        0.0000000000
C         5.0869456999        0.3988937189        0.0000000000
H        -4.0949035594       -3.2626626274        0.0000000000
H        -2.5678272441       -5.2270033011        0.0000000000
H        -0.1022413723       -4.9005346597        0.0000000000
H         1.8349274021       -3.4100629339        0.0000000000
H        -1.3339998402        4.2563630048        0.0000000000
H        -3.7994029656        3.9376743171        0.0000000000
H        -5.7447787090        2.4540047300        0.0000000000
H        -6.7000044909        0.1570739308        0.0000000000
H        -5.1973050252       -1.8267502703        0.0000000000
H         4.4125738809        2.8301724416        0.0000000000
H         2.8970253709        4.8001731471        0.0000000000
H         0.4284154129        4.4839367926        0.0000000000
H         3.6051062844       -3.1808908737        0.0000000000
H         6.0704726911       -2.8525048569        0.0000000000
H         7.0187157179       -0.5502565453        0.0000000000
H         5.5004000587        1.4191380026        0.0000000000
