 48

C         6.3524423384       -1.4754095801        0.0000000000
C         6.9389967596       -0.1916847986        0.0000000000
C         6.1488479947        0.9276788050        0.0000000000
C         4.9888726131       -1.6120175880        0.0000000000
C         4.1457854477       -0.4716023440        0.0000000000
C         4.7338009416        0.8095913574        0.0000000000
C         3.9138150214        1.9702401809        0.0000000000
C         2.5440523982        1.8604636910        0.0000000000
C         1.6959496090        3.0322921475        0.0000000000
C         0.3523720593        2.9240418533        0.0000000000
C        -0.3063748557        1.6377478091        0.0000000000
C         0.5001643776        0.4666882147        0.0000000000
C         2.0851414178       -1.8677404608        0.0000000000
C         2.7152027517       -0.5917344184        0.0000000000
C         1.9254855687        0.5679804274        0.0000000000
C        -1.7013221217        1.5252262533        0.0000000000
C        -2.5631467251        2.6829068255        0.0000000000
C        -3.9088661276        2.5672972518        0.0000000000
C        -4.5454315630        1.2727864240        0.0000000000
C        -5.9311632811        1.1386675810        0.0000000000
C        -6.5145567491       -0.1295310434        0.0000000000
C        -5.7307457451       -1.2692195645        0.0000000000
C        -3.7299549476        0.1136334037        0.0000000000
C        -4.3283373624       -1.1669884026        0.0000000000
C        -3.4981372136       -2.3310865441        0.0000000000
C        -2.3057656780        0.2377562387        0.0000000000
C        -1.5106868100       -0.9224201016        0.0000000000
C        -2.1338211228       -2.2198764799        0.0000000000
C        -1.2762155795       -3.3898472253        0.0000000000
C         0.0655857224       -3.2788713519        0.0000000000
C         0.7180778473       -1.9840474187        0.0000000000
C        -0.1023527130       -0.8080646504        0.0000000000
H         6.9986302449       -2.3592528231        0.0000000000
H         8.0302300516       -0.1023058992        0.0000000000
H         6.5966774810        1.9280178653        0.0000000000
H         4.5175042165       -2.6067565173        0.0000000000
H         4.3927743839        2.9573008624        0.0000000000
H         2.1827717011        4.0144784422        0.0000000000
H        -0.2928231585        3.8162719249        0.0000000000
H         2.7285211890       -2.7624048208        0.0000000000
H        -2.0757146423        3.6701779922        0.0000000000
H        -4.5516271990        3.4551197493        0.0000000000
H        -6.5660543069        2.0318597172        0.0000000000
H        -7.6061295208       -0.2190352262        0.0000000000
H        -6.1975712167       -2.2607406623        0.0000000000
H        -3.9788496298       -3.3171603692        0.0000000000
H        -1.7613436103       -4.3729490498        0.0000000000
H         0.7059953315       -4.1685831882        0.0000000000
