 54

C        -9.5172918321        1.1201307251        0.0000000000
C        -9.6240940629       -0.3121566021        0.0000000000
C        -8.5165501367       -1.0874514150        0.0000000000
C        -8.3070074192        1.7225910064        0.0000000000
C        -7.0910760986        0.9418481010        0.0000000000
C        -7.1982754868       -0.4956817250        0.0000000000
C        -6.0662721302       -1.2699757765        0.0000000000
C        -5.8567472887        1.5396807540        0.0000000000
C        -4.6616121352        0.7571161958        0.0000000000
C        -4.7682878384       -0.6733257539        0.0000000000
C        -3.6195673281       -1.4499860973        0.0000000000
C        -3.4103959020        1.3548070240        0.0000000000
C        -2.2338632102        0.5738934107        0.0000000000
C        -2.3402198218       -0.8522085569        0.0000000000
C        -1.1726258279       -1.6319882117        0.0000000000
C        -0.9635046434        1.1718521163        0.0000000000
C         0.1935236338        0.3938331754        0.0000000000
C         0.0870373498       -1.0342056105        0.0000000000
C         1.2737551654       -1.8164747689        0.0000000000
C         1.4832389953        0.9912780125        0.0000000000
C         2.6222866592        0.2153315603        0.0000000000
C         2.5155667172       -1.2184257054        0.0000000000
C         3.7211725030       -1.9975483623        0.0000000000
C         3.9292800683        0.8070430912        0.0000000000
C         5.0598610906        0.0410721787        0.0000000000
C         4.9496267087       -1.4008558466        0.0000000000
C         6.1616711864       -2.1969654034        0.0000000000
C         7.3785075077       -1.6232253899        0.0000000000
C         6.3906369311        0.6409642807        0.0000000000
C         7.5289122443       -0.1829296366        0.0000000000
C         8.8068805481        0.3956264102        0.0000000000
C         8.9502108764        1.7722318752        0.0000000000
C         7.8209112351        2.5938850731        0.0000000000
C         6.5555394784        2.0343791994        0.0000000000
H       -10.4407898683        1.7082641941        0.0000000000
H       -10.6246044947       -0.7568227736        0.0000000000
H        -8.5880567618       -2.1810855603        0.0000000000
H        -8.2155253234        2.8147361156        0.0000000000
H        -6.1403406770       -2.3645784847        0.0000000000
H        -5.7676445642        2.6331615337        0.0000000000
H        -3.6973847882       -2.5443846760        0.0000000000
H        -3.3250385821        2.4486414634        0.0000000000
H        -1.2556754035       -2.7260157468        0.0000000000
H        -0.8833622255        2.2660875392        0.0000000000
H         1.1862065782       -2.9101068283        0.0000000000
H         1.5592082537        2.0857155173        0.0000000000
H         3.6308860987       -3.0911214019        0.0000000000
H         4.0143980916        1.9060061914        0.0000000000
H         6.0514872017       -3.2878050110        0.0000000000
H         8.2912597364       -2.2303597597        0.0000000000
H         9.6919467810       -0.2508084490        0.0000000000
H         9.9491354045        2.2204015854        0.0000000000
H         7.9390646311        3.6823158921        0.0000000000
H         5.6576651404        2.6714634827        0.0000000000
