 52

C        -0.7870903680       -3.6746769302        0.0000000000
C        -2.1419993630       -3.8162755661        0.0000000000
C        -2.9904953048       -2.6709626269        0.0000000000
C        -2.4136552782       -1.3932455686        0.0000000000
C        -5.2106448001       -1.6964644088        0.0000000000
C        -4.4079854169       -2.8011918663        0.0000000000
C        -0.9910759105       -1.2448133975        0.0000000000
C        -0.1746822956       -2.3853498207        0.0000000000
C        -0.4108275472        0.0603663087        0.0000000000
C        -1.2578855621        1.2228812470        0.0000000000
C        -0.7022632810        2.5058080295        0.0000000000
C        -1.5647951873        3.6335770416        0.0000000000
C        -2.9249262715        3.4874548537        0.0000000000
C        -2.6744903165        1.0663073716        0.0000000000
C        -3.5092174459        2.1947913720        0.0000000000
C        -4.9266522342        2.0200003233        0.0000000000
C        -5.4759190531        0.7737522748        0.0000000000
C        -4.6476154949       -0.3892513927        0.0000000000
C        -3.2544628127       -0.2404476407        0.0000000000
C         0.7359497557        2.6627501449        0.0000000000
C         3.5199522615        2.9540319467        0.0000000000
C         2.6980470447        4.0818039315        0.0000000000
C         1.3253007713        3.9399655098        0.0000000000
C         1.2494031932       -2.2327694999        0.0000000000
C         2.1133018037       -3.3748199425        0.0000000000
C         3.4633831727       -3.2369471358        0.0000000000
C         4.0645485057       -1.9373430406        0.0000000000
C         5.4658828935       -1.7884571528        0.0000000000
C         6.0269122704       -0.5297804182        0.0000000000
C         5.2125061824        0.6083623579        0.0000000000
C         3.2383103584       -0.7953213260        0.0000000000
C         3.8289257496        0.4950863081        0.0000000000
C         2.9720002368        1.6758234885        0.0000000000
C         1.5630935720        1.5201436729        0.0000000000
C         0.9757680816        0.2073349564        0.0000000000
C         1.8123043569       -0.9512216100        0.0000000000
H        -0.1276490611       -4.5562322644        0.0000000000
H        -2.6014358660       -4.8113320678        0.0000000000
H        -6.3019269508       -1.7986979052        0.0000000000
H        -4.8424472127       -3.8074718430        0.0000000000
H        -1.1073522262        4.6350665769        0.0000000000
H        -3.5802142752        4.3659401165        0.0000000000
H        -5.5624032988        2.9128378584        0.0000000000
H        -6.5638617670        0.6406238838        0.0000000000
H         4.6150261404        3.0677548170        0.0000000000
H         3.1481538947        5.0799859727        0.0000000000
H         0.6700799322        4.8244889521        0.0000000000
H         1.6445284957       -4.3709152656        0.0000000000
H         4.1190125041       -4.1152767533        0.0000000000
H         6.1009001822       -2.6815707210        0.0000000000
H         7.1155046351       -0.4110961932        0.0000000000
H         5.6684735841        1.6104987742        0.0000000000
