 54

C        -5.0651792041       -1.7281320158       -0.6348791951
C        -3.9002001687       -1.0542978856       -0.3272011493
C        -3.9651546442        0.2924648259        0.1301164877
C        -5.2293033644        0.8768886900        0.3594219433
C        -6.4079886314        0.1595706377        0.0258256546
C        -6.3212842191       -1.1109390094       -0.4782130305
C        -2.7754825562        1.0410581040        0.3900830371
C        -1.4783091620        0.4587016352        0.0397482815
C        -1.4059244235       -0.9473266215       -0.1706072015
C        -2.5966438887       -1.7079481799       -0.4051271533
C        -0.3065469833        1.2055833846       -0.1377906366
C         0.9605138703        0.5453480704       -0.1199076181
C         1.0441386955       -0.8486913699        0.0115388865
C        -0.1482962098       -1.6018861894       -0.2141508296
C         2.1593256928        1.3365999930       -0.2501172462
C         3.4322769029        0.7184270678       -0.1479823178
C         3.5162829085       -0.6714855180        0.1849458773
C         2.3365132881       -1.4485810379        0.3319741832
C         2.0909367687        2.7133436316       -0.5008592204
C         0.8034753751        3.3435565903       -0.5763320084
C        -0.3250956838        2.6264534127       -0.3839974999
C         4.6018844441        1.4789998433       -0.3140174614
C         4.5037282477        2.8584276276       -0.5984215017
C         3.2733527988        3.4629413660       -0.6837480652
C         4.7855982710       -1.2452294232        0.4104488678
C         5.9677994303       -0.4579336910        0.1948367566
C         5.8807663653        0.8460389304       -0.1631499032
C         2.4724980432       -2.7395257050        0.8398721464
C         3.7267072443       -3.2937035115        1.1006638630
C         4.8790607309       -2.5715148794        0.8619190848
C        -2.5142293711       -3.0471913744       -0.7171208269
C        -1.2634469891       -3.6846829571       -0.8062925421
C        -0.1176425500       -2.9824196197       -0.5575060344
C        -5.3090793245        2.1680465792        0.9441139788
C        -4.1625110124        2.8285001455        1.2916657706
C        -2.8994761537        2.2679604702        1.0122522775
H         0.7609923640        4.4167099414       -0.7954903650
H        -1.3016805545        3.1277631340       -0.4371613117
H         5.4209418998        3.4413072255       -0.7403600547
H         3.1957704093        4.5359711435       -0.8935954041
H         6.9419781895       -0.9414512732        0.3314240812
H         6.7812732291        1.4478968060       -0.3306790724
H         1.5801000163       -3.3505999063        1.0333791842
H         3.7906574323       -4.3141208652        1.4934294041
H         5.8642629608       -3.0176574917        1.0377938065
H        -3.4333009651       -3.6201171720       -0.9146666123
H        -1.2200705387       -4.7430977715       -1.0836317057
H         0.8529890461       -3.4907557528       -0.6392835462
H        -2.0045966759        2.8456982627        1.2812265030
H        -4.2102502075        3.8075731200        1.7800545414
H        -6.2943716017        2.6118944181        1.1252818410
H        -7.3817846311        0.6374675591        0.1814428452
H        -7.2252216687       -1.6668878862       -0.7479178855
H        -5.0118166065       -2.7685125052       -0.9907174946
