 60

C         2.4421729392        0.6637257141       -1.3699264185
C         1.7284909128       -0.5574640391       -1.4100299359
C         2.4732666087       -1.7547887107       -1.3914138991
C         3.8752025764       -1.7177260424       -1.2112195856
C         4.5334834380       -0.5154251800       -1.1255557779
C         3.8097538294        0.6847569591       -1.2327746438
C         0.2936374976       -0.6162638118       -1.5938226962
C        -0.2461529794       -1.8258160701       -2.0551029790
C         0.5201076171       -3.0341688027       -1.9996381537
C         1.8227590975       -3.0084173750       -1.6260087698
C        -1.5489199259       -1.8645257819       -2.6297193113
C        -2.2448984453       -0.7083306378       -2.8085307944
C        -1.7605638359        0.5077812825       -2.2477949547
C        -0.5950117342        0.5115170732       -1.4600256486
C        -2.4593596209        1.7253955897       -2.5054986129
C        -1.9994579402        2.8957406518       -1.9889984108
C        -0.9473280348        2.8830965378       -1.0250949155
C        -0.3749223859        1.6655265960       -0.6175602150
C        -0.4925996758        4.1143526692       -0.4687186638
C         0.4969336459        4.1142779559        0.4648578047
C         0.9494652830        2.8831665790        1.0233787331
C         0.3759156325        1.6657422850        0.6169508309
C         2.0006780287        2.8959048133        1.9882497902
C         2.4594629205        1.7256527791        2.5060062257
C         1.7600103405        0.5083461260        2.2488215657
C         0.5948646017        0.5123112745        1.4604636721
C        -0.2940450206       -0.6153510682        1.5938020242
C         0.2453522905       -1.8250746403        2.0550022588
C         1.5479075934       -1.8640610695        2.6300787535
C         2.2437978771       -0.7079468752        2.8096796585
C        -0.5213711572       -3.0331384205        1.9994768305
C        -1.8243227214       -3.0066622382        1.6269392757
C        -2.4742799539       -1.7527900454        1.3923089083
C        -1.7288564260       -0.5558557827        1.4103653354
C        -2.4418595979        0.6657133565        1.3700217337
C        -3.8094120446        0.6874445929        1.2328010607
C        -4.5338115231       -0.5123643401        1.1260062909
C        -3.8761870813       -1.7150090958        1.2122044917
H        -0.0259469653       -3.9763239799        2.2568299068
H        -2.4113838211       -3.9282202482        1.5450773720
H         1.9485239141       -2.8242895185        2.9739942462
H         3.1954029918       -0.6981901203        3.3529157361
H         3.3367244770        1.7012642008        3.1623169520
H         2.4559923387        3.8546471673        2.2606968784
H         0.9297094020        5.0517241741        0.8320321481
H        -0.9233920111        5.0519391527       -0.8378651720
H        -2.4550109275        3.8544870576       -2.2610229721
H        -3.3366069824        1.7012164996       -3.1618362099
H        -3.1968322328       -0.6983740314       -3.3511809568
H        -4.4312350462       -2.6584722107        1.1590054627
H        -1.8923758319        1.6114689185        1.4593868443
H        -4.3438749975        1.6426933888        1.2062784052
H        -5.6194821202       -0.4789957988        0.9907449547
H        -1.9496244951       -2.8246671486       -2.9737842230
H         0.0246734187       -3.9771555133       -2.2577085024
H         2.4090625842       -3.9303054242       -1.5424970417
H         4.4295446068       -2.6615470093       -1.1570500394
H         5.6191641695       -0.4825407033       -0.9902388153
H         4.3448458596        1.6396587241       -1.2065790120
H         1.8932810825        1.6098214848       -1.4592880385
