 52

C         2.4526026209       -3.9352098900        0.0000000000
C         1.1991335113       -4.4241330158        0.0000000000
C         2.7114303356       -2.5067186688        0.0000000000
C         3.9848921815       -2.0100753695        0.0000000000
C         4.2237005632       -0.5976597377        0.0000000000
C         5.5254631135       -0.0749579514        0.0000000000
C         5.7290806257        1.2966324744        0.0000000000
C         4.6513627457        2.1782758584        0.0000000000
C         0.0413340728       -3.5484291133        0.0000000000
C        -1.2320059829       -4.0438488680        0.0000000000
C         0.2670100118       -2.1251630897        0.0000000000
C         1.5795668743       -1.6140465141        0.0000000000
C         1.7894457131       -0.2199548964        0.0000000000
C         3.1233403464        0.2908397303        0.0000000000
C         3.3430807024        1.6894187891        0.0000000000
C         2.2101490424        2.5707679519        0.0000000000
C        -2.3636944967       -3.1659244745        0.0000000000
C        -4.5632119236       -1.4352555189        0.0000000000
C        -4.7551283603       -2.8160123119        0.0000000000
C        -3.6723697552       -3.6768643926        0.0000000000
C        -3.2790581935       -0.8933141151        0.0000000000
C        -2.1631361084       -1.7665883330        0.0000000000
C        -0.8316247459       -1.2416528031        0.0000000000
C        -0.6184912689        0.1580194067        0.0000000000
C         0.6853848665        0.6699740332        0.0000000000
C         0.9311955050        2.0949497527        0.0000000000
C        -0.2176942443        2.9990147428        0.0000000000
C        -0.0469812791        4.3711721300        0.0000000000
C        -1.1538635571        5.2380530448        0.0000000000
C        -2.4302668975        4.7342222949        0.0000000000
C        -1.5363367116        2.4594897017        0.0000000000
C        -2.6418960848        3.3339141920        0.0000000000
C        -3.9598933543        2.7932197345        0.0000000000
C        -4.1547599831        1.4440073851        0.0000000000
C        -3.0537795798        0.5417440321        0.0000000000
C        -1.7570912501        1.0468275127        0.0000000000
H         3.3199818079       -4.6057079573        0.0000000000
H         1.0147739225       -5.5048411081        0.0000000000
H         4.8494235790       -2.6853748998        0.0000000000
H         6.3817705091       -0.7588669333        0.0000000000
H         6.7499783176        1.6933734049        0.0000000000
H         4.8279172197        3.2597658471        0.0000000000
H        -1.4114059710       -5.1261822457        0.0000000000
H         2.3885653752        3.6585291975        0.0000000000
H        -5.4293767063       -0.7558546551        0.0000000000
H        -5.7737514599       -3.2182039663        0.0000000000
H        -3.8281920726       -4.7616401997        0.0000000000
H         0.9729579157        4.7860301357        0.0000000000
H        -0.9838589299        6.3197889483        0.0000000000
H        -3.2974680972        5.4041846314        0.0000000000
H        -4.8121007454        3.4823977602        0.0000000000
H        -5.1703097569        1.0185361651        0.0000000000
