 54

C         2.0877333479       -1.4694827272       -0.4037362759
C         2.1017417189       -2.7453884877       -0.9588481831
C         3.3005809707       -3.4084112276       -1.2389502472
C         4.5132422029       -2.8104416120       -0.9706787682
C         3.3358049969       -0.8143152699       -0.2222075942
C         4.5447081302       -1.4974609550       -0.4669308597
C         5.7947434629       -0.8383357765       -0.2172852912
C         5.8306957375        0.4525556894        0.1966761232
C         3.3840638972        0.5628078858        0.1669886234
C         4.6181485598        1.1965348403        0.3714008383
C         4.6526800262        2.5685999689        0.7207723668
C         3.4899693889        3.2838302572        0.8318610873
C         2.1735865584        1.2991778831        0.2883105749
C         2.2371083129        2.6618542377        0.6074729877
C         1.0209089694        3.4066655394        0.7138697376
C        -0.1727830711        2.8092439955        0.4817428756
C         0.8522743710       -0.7623508168       -0.0675701669
C         0.9056133876        0.6437903919        0.1067193173
C        -0.2812122030        1.4148119729        0.1547936683
C        -0.3918041665       -1.3919735953        0.1356592074
C        -1.6906542584       -3.3946056642        0.6724217443
C        -0.5028344055       -2.7973330243        0.4377667849
C        -2.9153138012       -2.6475384139        0.5943039443
C        -5.2777721804       -1.1806532209        0.4399850419
C        -5.3196475186       -2.5322782626        0.7676772195
C        -4.1481949032       -3.2675617119        0.8363588703
C        -1.5841876854       -0.6185430402        0.1079529679
C        -1.5329620718        0.7815930241       -0.0500025339
C        -4.0626151377       -0.5428265467        0.1874058191
C        -2.8572293455       -1.2728170111        0.2839910508
C        -4.0083519518        0.8478976011       -0.2289263219
C        -2.7644164005        1.4879448278       -0.3879242480
C        -2.7569596965        2.7775153636       -0.9522628589
C        -3.9297240585        3.4335762813       -1.2733536783
C        -5.1620575094        2.8194547043       -1.0411617553
C        -5.1956253628        1.5367812701       -0.5321365122
H         1.1560103259       -3.2611185796       -1.1752283697
H         3.2669203819       -4.4152448574       -1.6687322733
H         5.4530629963       -3.3401768816       -1.1623234731
H         6.7192827044       -1.4061972500       -0.3728836512
H         6.7838853999        0.9570868386        0.3918296923
H         5.6225280924        3.0493728233        0.8923389636
H         3.5131546745        4.3476412632        1.0948745336
H         1.0771526139        4.4661096469        0.9893051155
H        -1.0968922548        3.3984204141        0.5622123016
H        -1.7466233387       -4.4581154717        0.9321960833
H         0.4217002843       -3.3881100392        0.5014973148
H        -6.2108889777       -0.6016705887        0.3642240780
H        -6.2831401644       -3.0136417210        0.9649049144
H        -4.1778697672       -4.3348155114        1.0834352519
H        -1.7983537014        3.2799814739       -1.1412002456
H        -3.8938774706        4.4365974332       -1.7110978646
H        -6.0920930010        3.3469564942       -1.2756892870
H        -6.1581080670        1.0283883566       -0.3669435332
