 52

C         7.1031779400       -2.0295376899        0.0000000000
C         7.7859258143       -0.7939388379        0.0000000000
C         7.0837809356        0.3825073913        0.0000000000
C         5.7334169528       -2.0621669769        0.0000000000
C         4.9801286436       -0.8601337134        0.0000000000
C         5.6638588270        0.3722683149        0.0000000000
C         4.9318438287        1.5901606777        0.0000000000
C         3.5580464416        1.5824131233        0.0000000000
C         2.8025355657        2.8161388276        0.0000000000
C         1.4559673356        2.8098262353        0.0000000000
C         0.6970410536        1.5778610167        0.0000000000
C         1.4090035359        0.3428302421        0.0000000000
C         0.7127683092       -0.8792037718        0.0000000000
C         1.4557440073       -2.0994980642        0.0000000000
C         2.8149887696       -2.0956849844        0.0000000000
C         3.5460387613       -0.8692630778        0.0000000000
C         2.8421819524        0.3408773935        0.0000000000
C        -0.6971626340        1.5777938459        0.0000000000
C        -1.4562108071        2.8096971112        0.0000000000
C        -2.8028210401        2.8158827254        0.0000000000
C        -3.5582157410        1.5820713684        0.0000000000
C        -4.9320280557        1.5896680095        0.0000000000
C        -2.8422176305        0.3405932157        0.0000000000
C        -3.5459522645       -0.8696311330        0.0000000000
C        -2.8147835049       -2.0959717851        0.0000000000
C        -1.4555248000       -2.0996431099        0.0000000000
C        -0.7126691079       -0.8792665128        0.0000000000
C        -1.4090329627        0.3427000638        0.0000000000
C        -4.9800443502       -0.8606567646        0.0000000000
C        -5.6639206286        0.3716798009        0.0000000000
C        -7.0838505903        0.3817531198        0.0000000000
C        -7.7858683998       -0.7947931108        0.0000000000
C        -7.1029706802       -2.0303115714        0.0000000000
C        -5.7331904793       -2.0627763526        0.0000000000
H         7.6804116967       -2.9598819715        0.0000000000
H         8.8807986700       -0.7882117802        0.0000000000
H         7.6064177627        1.3458431685        0.0000000000
H         5.1865822222       -3.0175129307        0.0000000000
H         5.4827675982        2.5389625511        0.0000000000
H         3.3630865520        3.7582308761        0.0000000000
H         0.8855170436        3.7513670447        0.0000000000
H         0.8922428695       -3.0451709448        0.0000000000
H         3.3885598326       -3.0354381776        0.0000000000
H        -0.8858401633        3.7512888966        0.0000000000
H        -3.3634587149        3.7579252714        0.0000000000
H        -5.4830485440        2.5384144384        0.0000000000
H        -3.3882465525       -3.0357906138        0.0000000000
H        -0.8919276974       -3.0452582976        0.0000000000
H        -7.6065917415        1.3450337016        0.0000000000
H        -8.8807424327       -0.7891970331        0.0000000000
H        -7.6800975682       -2.9607239372        0.0000000000
H        -5.1862521984       -3.0180640463        0.0000000000
