 56

C        -3.5104264489        3.8854713212        0.7916974361
C        -2.8290453377        2.6918271237        0.4854955148
C        -3.5544201449        1.5014772253        0.3091742953
C        -4.9557968585        1.5279862499        0.4327771813
C        -5.6107901694        2.7041155601        0.7348352203
C        -4.8844045366        3.8884427812        0.9170284967
C        -2.8459530563        0.2710603997        0.0005101768
C        -1.4226735233        0.2646892596        0.0015593328
C        -0.7208460877        1.5257541081        0.1057580770
C        -1.4009456311        2.6831336654        0.3299529065
C        -0.7168946228       -0.9342350517       -0.1585711464
C         0.7149749014       -0.9359170587        0.1561101830
C         1.4235066383        0.2614999207       -0.0030504263
C         0.7245320029        1.5241457781       -0.1074687351
C        -3.5302914604       -0.8949911900       -0.2978339178
C        -2.8307577302       -2.0443470903       -0.7072737418
C        -1.4143522719       -2.0620830421       -0.6764300493
C        -0.7500085774       -3.1874577696       -1.2520783025
C         0.7420999182       -3.1874400555        1.2535373321
C         1.4094314130       -2.0650694580        0.6754148583
C         2.8258249367       -2.0507208205        0.7071986310
C         3.5283338947       -0.9022964751        0.3004890812
C         2.8468238496        0.2649930591        0.0005599601
C         3.5582493238        1.4937664991       -0.3080969567
C         2.8356165149        2.6856497117       -0.4852342345
C         1.4073622280        2.6800915628       -0.3307513461
C         3.5198030949        3.8776230571       -0.7916311278
C         4.8937968584        3.8773138481       -0.9170643931
C         5.6174321833        2.6914133904       -0.7343107666
C         4.9597344613        1.5170086490       -0.4315379421
C         1.4439264941       -4.2479808569        1.7489206744
C         2.8605305531       -4.2655421374        1.6901955069
C         3.5351520694       -3.1926563729        1.1869861447
C        -1.4546254381       -4.2461095881       -1.7474127341
C        -2.8713929268       -4.2585210673       -1.6916530473
C        -3.5431714271       -3.1837816664       -1.1885213445
H        -4.6314630683       -0.9013820415       -0.2559083748
H        -0.8541628544        3.6391224881        0.3674995071
H         4.6296110038       -0.9102768372        0.2619833126
H         0.8627044599        3.6372591134       -0.3684475759
H         2.9497696083        4.8032257488       -0.9303654938
H         5.4253732991        4.8034996779       -1.1586309875
H         6.7077749109        2.7015830089       -0.8330660075
H         5.5153440354        0.5787251886       -0.2803499874
H         4.6305664272       -3.1801103766        1.1559158612
H         3.3985099722       -5.1419242155        2.0657356575
H         0.9212387437       -5.0968952330        2.2018533436
H        -0.3542144561       -3.1744739621        1.3092984428
H         0.3464904084       -3.1789083704       -1.3051622700
H        -0.9341366529       -5.0978182290       -2.1976522351
H        -3.4119102477       -5.1324217548       -2.0692830189
H        -4.6385924379       -3.1676555263       -1.1588308278
H        -5.5135665413        0.5908424646        0.2824229744
H        -6.7011169249        2.7168032878        0.8334082790
H        -5.4139377171        4.8159819060        1.1579959587
H        -2.9382717917        4.8098122392        0.9301468632
