 56

C        -5.3741807005        3.5338819976       -0.4242043703
C        -6.0295454492        2.2950899569       -0.4343717870
C        -5.3065690781        1.1262200559       -0.3173424657
C        -4.0021228277        3.5900027468       -0.2953251398
C        -3.2526651604        2.4032753065       -0.1765002705
C        -3.9049937357        1.1607301070       -0.1895538568
C        -1.8259633441        2.4502774748       -0.0304039423
C        -1.0735087710        1.3173819571        0.0422078935
C         0.5223350678       -1.0326926572       -0.1971517185
C         1.2702643885       -2.0791833592       -0.6636764115
C         3.3520721426       -0.8909628178       -0.1429487561
C         2.6928233427       -2.0422063972       -0.6177257051
C         3.4264937616       -3.2113451304       -0.9367046724
C         4.7732464543       -3.2748698263       -0.6834453611
C         5.4150443236       -2.1821181023       -0.0731509345
C         4.7219902735       -1.0257587105        0.1910134122
C        -0.9269106875       -1.1541854635        0.0081100164
C        -1.6988958905        0.0132840236       -0.0162308804
C        -3.1206914398       -0.0564647512       -0.0690206989
C        -3.7443265291       -1.2904814416       -0.0109201197
C        -1.5788619382       -2.4029278405        0.2328384869
C        -2.9947694967       -2.4611799779        0.1872224804
C        -3.6709792698       -3.7065950903        0.3639752120
C        -2.9716643531       -4.8433156526        0.6394504224
C        -1.5609834155       -4.7858250058        0.7613146260
C        -0.8935202062       -3.6128014181        0.5616269526
C         0.3775720672        1.4006831785        0.2034504839
C         1.1850410880        0.2286924766        0.0268723906
C         2.5853111028        0.3271427252        0.0138722147
C         0.9690976165        2.6025180539        0.4826185071
C         2.3821162115        2.7439437961        0.4460249954
C         3.1923283638        1.6362098066        0.1205738191
C         4.5597440418        1.9036130811       -0.1461429613
C         5.0974263471        3.1553245341        0.0209909995
C         4.2951949795        4.2259523944        0.4577215920
C         2.9534540284        4.0250457691        0.6516615648
H        -5.9576853365        4.4554726027       -0.5186910465
H        -7.1191321115        2.2599531357       -0.5359049517
H        -5.8118673067        0.1483356645       -0.3220251934
H        -3.4842077791        4.5557295539       -0.2853559784
H        -1.3423947166        3.4384417062        0.0392902102
H         0.7924342402       -3.0100129886       -1.0024839935
H         2.8989906374       -4.0685927813       -1.3708406050
H         5.3475632036       -4.1740506628       -0.9281169082
H         6.4739376424       -2.2624247899        0.1942430630
H         5.2433634763       -0.1956696748        0.6865746663
H        -4.8422199094       -1.3470406451       -0.0907522897
H        -4.7640781727       -3.7245190244        0.2844938528
H        -3.4830357494       -5.8008996529        0.7800327584
H        -1.0141573122       -5.6974988487        1.0241471830
H         0.2000671864       -3.5935680250        0.6654421456
H         0.3471921486        3.4933540933        0.6684662907
H         5.2107825609        1.0985537309       -0.5124049083
H         6.1572432807        3.3317831110       -0.1910826143
H         4.7446223879        5.2111085424        0.6177718242
H         2.3028721598        4.8533212135        0.9552475365
