 52

C        -0.2380397564       -4.3804821504        0.0000000000
C        -1.4874750990       -3.7611981342        0.0000000000
C        -1.6069258700       -2.3751833175        0.0000000000
C        -0.4378374581       -1.5745825082        0.0000000000
C         0.8291681713       -2.2012619863        0.0000000000
C         0.9231636234       -3.6175745023        0.0000000000
C         2.2314835445       -4.2322471309        0.0000000000
C         3.3557151813       -3.4873455600        0.0000000000
C         2.0136620188       -1.4092022501        0.0000000000
C         3.3005193726       -2.0407679004        0.0000000000
C         4.4448581113       -1.2783322167        0.0000000000
C         1.9194219499       -0.0110409521        0.0000000000
C         1.7235331586        2.8092523747        0.0000000000
C         0.6360591444        0.6237218606        0.0000000000
C         0.5777817365        2.0727301468        0.0000000000
C        -0.5176668312       -0.1460570377        0.0000000000
C        -2.9176366386       -1.7331972848        0.0000000000
C        -5.4396453384       -0.4763271706        0.0000000000
C        -5.3449999158       -1.8361566389        0.0000000000
C        -4.0782836108       -2.4696080976        0.0000000000
C        -0.7356559120        2.7137499093        0.0000000000
C        -0.8637598673        4.0813449795        0.0000000000
C        -2.1414276161        4.6969952461        0.0000000000
C        -3.2739271891        3.9411923557        0.0000000000
C        -1.8200404395        0.4877249543        0.0000000000
C        -1.9126598749        1.8911883832        0.0000000000
C        -3.1914801512        2.5120855340        0.0000000000
C        -4.3459646644        1.7273363905        0.0000000000
C        -4.2599827118        0.3310325313        0.0000000000
C        -2.9874057833       -0.2996253334        0.0000000000
C         3.1075894088        0.7736344116        0.0000000000
C         4.3718336353        0.1424317322        0.0000000000
C         5.5371172791        0.9404479447        0.0000000000
C         5.4399737008        2.3151891819        0.0000000000
C         4.1893729843        2.9472395191        0.0000000000
C         3.0242053000        2.1923382901        0.0000000000
H        -0.1748643029       -5.4746319334        0.0000000000
H        -2.4035654257       -4.3725566348        0.0000000000
H         2.2793159629       -5.3274129962        0.0000000000
H         4.3454219086       -3.9587024098        0.0000000000
H         5.4321103171       -1.7565588349        0.0000000000
H         1.6657587457        3.9101264123        0.0000000000
H        -6.4159851183        0.0214538963        0.0000000000
H        -6.2451930779       -2.4596611415        0.0000000000
H        -4.0224602797       -3.5692026492        0.0000000000
H         0.0396703977        4.7106793463        0.0000000000
H        -2.1974057770        5.7905809428        0.0000000000
H        -4.2652910116        4.4083174881        0.0000000000
H        -5.3313882784        2.2097262972        0.0000000000
H         6.5185472382        0.4528307987        0.0000000000
H         6.3478441604        2.9278663079        0.0000000000
H         4.1340574937        4.0416343496        0.0000000000
