 52

C        -1.1388067567       -3.5431862179        0.0000000000
C        -2.5049837853       -3.6238606708        0.0000000000
C        -3.2962829840       -2.4466979651        0.0000000000
C        -2.6603143338       -1.1954353993        0.0000000000
C        -5.4723836764       -1.3695408320        0.0000000000
C        -4.7239922071       -2.5072138024        0.0000000000
C        -1.2374076545       -1.1154350612        0.0000000000
C        -0.4748973435       -2.2884889631        0.0000000000
C        -0.5973649532        0.1719505703        0.0000000000
C         0.6480660765        2.6877714818        0.0000000000
C        -1.3847478198        1.3541071896        0.0000000000
C        -0.7607985042        2.6138549976        0.0000000000
C        -1.5705938774        3.7940444739        0.0000000000
C        -2.9287035772        3.7106115284        0.0000000000
C        -2.8127597275        1.2716385993        0.0000000000
C        -3.5854076064        2.4403353737        0.0000000000
C        -5.0029138116        2.3365598842        0.0000000000
C        -5.6151251582        1.1134059691        0.0000000000
C        -4.8490130857       -0.0840894798        0.0000000000
C        -3.4495988300       -0.0028030219        0.0000000000
C         0.9672401231       -2.1984412097        0.0000000000
C         1.7726614524       -3.3645821875        0.0000000000
C         3.1396945528       -3.2814521793        0.0000000000
C         1.5857319305       -0.9401807968        0.0000000000
C         1.4255858214        1.5439908490        0.0000000000
C         0.8007018963        0.2631822538        0.0000000000
C         2.8830270049        1.6259326287        0.0000000000
C         5.6895768763        1.7605310120        0.0000000000
C         4.9356474838        2.9157423541        0.0000000000
C         3.5386785942        2.8506143813        0.0000000000
C         5.0556933985        0.5033092157        0.0000000000
C         3.6482247142        0.4323034930        0.0000000000
C         3.0065525178       -0.8516047711        0.0000000000
C         3.7816005701       -2.0195032455        0.0000000000
C         5.2120497002       -1.9200963981        0.0000000000
C         5.8232869371       -0.7094559038        0.0000000000
H        -0.5207055512       -4.4543741913        0.0000000000
H        -3.0053094543       -4.5989788885        0.0000000000
H        -6.5673213494       -1.4186668389        0.0000000000
H        -5.2032711160       -3.4929564621        0.0000000000
H         1.1403185079        3.6739389942        0.0000000000
H        -1.0689104456        4.7685334800        0.0000000000
H        -3.5462362010        4.6161559706        0.0000000000
H        -5.5976979361        3.2572111331        0.0000000000
H        -6.7085957361        1.0378827835        0.0000000000
H         1.2679378610       -4.3431388993        0.0000000000
H         3.7524597687       -4.1901710232        0.0000000000
H         6.7842875342        1.8109746491        0.0000000000
H         5.4275846955        3.8940850044        0.0000000000
H         2.9428598814        3.7764353041        0.0000000000
H         5.7968147698       -2.8471320098        0.0000000000
H         6.9165282106       -0.6303420616        0.0000000000
