 54

C         8.3336618800       -0.5615829096        0.0000000000
C         8.8517484125        0.7168587975        0.0000000000
C         7.9933517635        1.8248002796        0.0000000000
C         6.6265320602        1.6423026612        0.0000000000
C         6.9401723442       -0.7634672480        0.0000000000
C         6.0774451116        0.3458487705        0.0000000000
C         5.0586935131       -2.3012731811        0.0000000000
C         6.3936124943       -2.0973248036        0.0000000000
C         4.1369353333       -1.1916653594        0.0000000000
C         4.6408899357        0.1351328665        0.0000000000
C         3.7480915609        1.2020447784        0.0000000000
C         2.7631135405       -1.4102468481        0.0000000000
C         1.8595344961       -0.3383303432        0.0000000000
C         2.3641487973        0.9839493384        0.0000000000
C         1.4488253976        2.0872543075        0.0000000000
C         0.1098069114        1.8740194022        0.0000000000
C         0.4301495064       -0.5468135424        0.0000000000
C        -0.4301151055        0.5468533226        0.0000000000
C        -1.4487856792       -2.0872241212        0.0000000000
C        -0.1097453471       -1.8739826863        0.0000000000
C        -2.3641048363       -0.9839217635        0.0000000000
C        -1.8594999318        0.3383596782        0.0000000000
C        -2.7631154810        1.4102774741        0.0000000000
C        -3.7480650291       -1.2020396218        0.0000000000
C        -4.6408785535       -0.1351508331        0.0000000000
C        -4.1369308846        1.1916716753        0.0000000000
C        -5.0587113256        2.3012792653        0.0000000000
C        -6.3936235928        2.0973216892        0.0000000000
C        -6.0774589621       -0.3458882720        0.0000000000
C        -6.9402059970        0.7634561708        0.0000000000
C        -8.3337013575        0.5615753076        0.0000000000
C        -8.8518073348       -0.7169014324        0.0000000000
C        -7.9934134446       -1.8248411598        0.0000000000
C        -6.6265524327       -1.6423432038        0.0000000000
H         9.0017247200       -1.4303993727        0.0000000000
H         9.9354991912        0.8725250187        0.0000000000
H         8.4138117359        2.8356752037        0.0000000000
H         5.9392170121        2.5022717686        0.0000000000
H         4.6420015761       -3.3151214332        0.0000000000
H         7.0943946704       -2.9402033697        0.0000000000
H         4.1459804955        2.2299073857        0.0000000000
H         2.3663972895       -2.4383210589        0.0000000000
H         1.8576426405        3.1041552228        0.0000000000
H        -0.6004555283        2.7151953394        0.0000000000
H        -1.8575623104       -3.1041441388        0.0000000000
H         0.6005280381       -2.7151500929        0.0000000000
H        -2.3663976346        2.4383521082        0.0000000000
H        -4.1458814220       -2.2299275029        0.0000000000
H        -4.6420040972        3.3151202813        0.0000000000
H        -7.0944005140        2.9402071848        0.0000000000
H        -9.0017934282        1.4303725144        0.0000000000
H        -9.9355686800       -0.8725180266        0.0000000000
H        -8.4138163176       -2.8357431388        0.0000000000
H        -5.9392908088       -2.5023545730        0.0000000000
