 54

C        -9.7454453995        0.7199338007        0.0000000000
C        -9.7456139235       -0.7177157998        0.0000000000
C        -8.5846735822       -1.4086984271        0.0000000000
C        -8.5843440428        1.4106462604        0.0000000000
C        -7.3116794180        0.7231784378        0.0000000000
C        -7.3118459615       -0.7215312673        0.0000000000
C        -6.1290629006       -1.4093075445        0.0000000000
C        -6.1287388543        1.4106862027        0.0000000000
C        -4.8729604235        0.7202116315        0.0000000000
C        -4.8731253342       -0.7191205061        0.0000000000
C        -3.6778511914       -1.4072789924        0.0000000000
C        -3.6775294837        1.4080987023        0.0000000000
C        -2.4354870604        0.7173814736        0.0000000000
C        -2.4356488515       -0.7168483047        0.0000000000
C        -1.2262471466       -1.4061212537        0.0000000000
C        -1.2259303833        1.4063844335        0.0000000000
C         0.0001756650        0.7159265987        0.0000000000
C         0.0000158484       -0.7159407368        0.0000000000
C         1.2257851693       -1.4063772399        0.0000000000
C         1.2260992411        1.4060902317        0.0000000000
C         2.4358026920        0.7167798998        0.0000000000
C         2.4356442404       -0.7173412485        0.0000000000
C         3.6774218468       -1.4080676661        0.0000000000
C         3.6777321549        1.4072343173        0.0000000000
C         4.8732040844        0.7190555506        0.0000000000
C         4.8730448277       -0.7201522022        0.0000000000
C         6.1286750341       -1.4106568031        0.0000000000
C         6.1289874207        1.4092807771        0.0000000000
C         7.3118672485        0.7214941218        0.0000000000
C         7.3117106914       -0.7231373526        0.0000000000
C         8.5843256888       -1.4106232441        0.0000000000
C         9.7454598963       -0.7198942548        0.0000000000
C         9.7456161179        0.7177224929        0.0000000000
C         8.5846328438        1.4087030154        0.0000000000
H       -10.7105091544        1.2370195913        0.0000000000
H       -10.7108002515       -1.2345729680        0.0000000000
H        -8.5750178962       -2.5046200421        0.0000000000
H        -8.5744305898        2.5065646688        0.0000000000
H        -6.1210493476       -2.5063918307        0.0000000000
H        -6.1204768933        2.5077686686        0.0000000000
H        -3.6720503833       -2.5044457898        0.0000000000
H        -3.6714719571        2.5052636677        0.0000000000
H        -1.2240697288       -2.5033251621        0.0000000000
H        -1.2235033465        2.5035873910        0.0000000000
H         1.2235144411       -2.5035809235        0.0000000000
H         1.2240735179        2.5032938970        0.0000000000
H         3.6714599600       -2.5052330381        0.0000000000
H         3.6720068180        2.5044009648        0.0000000000
H         6.1204438345       -2.5077397183        0.0000000000
H         6.1210016190        2.5063650118        0.0000000000
H         8.5744199964       -2.5065424953        0.0000000000
H        10.7105142807       -1.2370009557        0.0000000000
H        10.7107804463        1.2346232729        0.0000000000
H         8.5749651405        2.5046240818        0.0000000000
