 60

C       -10.9675948989        0.7200860676        0.0000000000
C       -10.9677330131       -0.7181115826        0.0000000000
C        -9.8072130048       -1.4090735141        0.0000000000
C        -9.8069427279        1.4108270139        0.0000000000
C        -8.5334088957        0.7237652549        0.0000000000
C        -8.5335437489       -0.7222599891        0.0000000000
C        -7.3521652756       -1.4098996897        0.0000000000
C        -7.3519037037        1.4111903898        0.0000000000
C        -6.0937052538        0.7213290872        0.0000000000
C        -6.0938378608       -0.7202701094        0.0000000000
C        -4.9018666442       -1.4080643997        0.0000000000
C        -4.9016089006        1.4089078392        0.0000000000
C        -3.6547753977        0.7187546439        0.0000000000
C        -3.6549035719       -0.7181429903        0.0000000000
C        -2.4513865720       -1.4067049480        0.0000000000
C        -2.4511366600        1.4071071864        0.0000000000
C        -1.2177870590        0.7167379418        0.0000000000
C        -1.2179116233       -0.7165551337        0.0000000000
C        -0.0002463928       -1.4062134189        0.0000000000
C        -0.0000021273        1.4061870046        0.0000000000
C         1.2182204077        0.7164768990        0.0000000000
C         1.2180991882       -0.7167215623        0.0000000000
C         2.4509229161       -1.4070832730        0.0000000000
C         2.4511605883        1.4066321708        0.0000000000
C         3.6551155304        0.7180226206        0.0000000000
C         3.6549942872       -0.7186761349        0.0000000000
C         4.9014639102       -1.4088599074        0.0000000000
C         4.9017010824        1.4079946511        0.0000000000
C         6.0939323938        0.7201758123        0.0000000000
C         6.0938152523       -0.7212494146        0.0000000000
C         7.3518261285       -1.4111469640        0.0000000000
C         7.3520585555        1.4098670970        0.0000000000
C         8.5335609273        0.7222236929        0.0000000000
C         8.5334437515       -0.7237019772        0.0000000000
C         9.8069200574       -1.4107815897        0.0000000000
C        10.9676048012       -0.7200157494        0.0000000000
C        10.9677202173        0.7181419352        0.0000000000
C         9.8071480725        1.4090953838        0.0000000000
H       -11.9328399070        1.2368279369        0.0000000000
H       -11.9330798758       -1.2346637386        0.0000000000
H        -9.7976509456       -2.5050014274        0.0000000000
H        -9.7971683065        2.5067517725        0.0000000000
H        -7.3440010801       -2.5069905897        0.0000000000
H        -7.3435412272        2.5082796940        0.0000000000
H        -4.8953007932       -2.5052342237        0.0000000000
H        -4.8948349253        2.5060756790        0.0000000000
H        -2.4474952470       -2.5039125148        0.0000000000
H        -2.4470458090        2.5043134443        0.0000000000
H        -0.0002115337       -2.5034373565        0.0000000000
H         0.0002238949        2.5034100086        0.0000000000
H         2.4470405222       -2.5042904005        0.0000000000
H         2.4474569418        2.5038398118        0.0000000000
H         4.8947984925       -2.5060289162        0.0000000000
H         4.8952227043        2.5051640230        0.0000000000
H         7.3434997820       -2.5082363900        0.0000000000
H         7.3439120854        2.5069575804        0.0000000000
H         9.7971583293       -2.5067071949        0.0000000000
H        11.9328416542       -1.2367770155        0.0000000000
H        11.9330373273        1.2347527821        0.0000000000
H         9.7975643237        2.5050220087        0.0000000000
