 52

C         1.0782686055       -2.8226580217        0.0000000000
C        -0.2958963417       -0.3793357647        0.0000000000
C         1.1086021920       -0.3943986350        0.0000000000
C         1.7991237195       -1.6328416544        0.0000000000
C        -1.0111298189        0.8707666643        0.0000000000
C        -2.4033504921        3.3164367014        0.0000000000
C         1.8379091727        0.8470042011        0.0000000000
C         3.2413352354        0.8517991928        0.0000000000
C         3.9234758982        2.0825895400        0.0000000000
C         3.2392614962        3.2798285438        0.0000000000
C        -1.0088175258        3.3145115405        0.0000000000
C        -0.3032088604        2.0849017539        0.0000000000
C         1.1310386475        2.0769743660        0.0000000000
C         1.8336709780        3.2960266841        0.0000000000
C         1.0978707322        4.5329121007        0.0000000000
C        -0.2557144120        4.5426612282        0.0000000000
C        -5.2542849482       -1.5695821415        0.0000000000
C        -4.5771436416       -2.7641470331        0.0000000000
C        -2.4214891361        0.8831549438        0.0000000000
C        -3.1191863171        2.1126091071        0.0000000000
C        -4.5563783798        2.0910106933        0.0000000000
C        -5.2412928836        0.9196267923        0.0000000000
C        -4.5533014685       -0.3401043199        0.0000000000
C        -3.1513210822       -0.3499154550        0.0000000000
C        -0.3246899176       -2.8232505066        0.0000000000
C        -1.0173844610       -1.5952147167        0.0000000000
C        -2.4496980336       -1.5861776961        0.0000000000
C        -3.1620408056       -2.7946818937        0.0000000000
C        -2.4357874345       -4.0315859559        0.0000000000
C        -1.0780962782       -4.0455116534        0.0000000000
C         3.9611136269       -0.4120178944        0.0000000000
C         3.2553123208       -1.6285377794        0.0000000000
C         3.9740595015       -2.8372078995        0.0000000000
C         5.3549939050       -2.8416974726        0.0000000000
C         6.0565626814       -1.6324335747        0.0000000000
C         5.3673745725       -0.4358892590        0.0000000000
H         1.6234067193       -3.7803779844        0.0000000000
H        -2.9469166307        4.2692885831        0.0000000000
H         5.0245030520        2.0723219056        0.0000000000
H         3.7882878733        4.2284073175        0.0000000000
H         1.6677223400        5.4693103860        0.0000000000
H        -0.8122997852        5.4869726924        0.0000000000
H        -6.3502556816       -1.5539899834        0.0000000000
H        -5.1267276245       -3.7124961586        0.0000000000
H        -5.0861128339        3.0506505944        0.0000000000
H        -6.3373489353        0.9097224933        0.0000000000
H        -3.0069470862       -4.9671023545        0.0000000000
H        -0.5263859052       -4.9925937964        0.0000000000
H         3.4132269229       -3.7845733501        0.0000000000
H         5.9024279040       -3.7898102681        0.0000000000
H         7.1513688642       -1.6371558609        0.0000000000
H         5.9113544447        0.5212239057        0.0000000000
