 52

C        -0.7001172834       -0.0591213063        0.0000000000
C         0.6976592931       -0.0831107975        0.0000000000
C         1.4503778780        1.1471604170        0.0000000000
C         2.8512479912        1.1353335857        0.0000000000
C         3.5523157164        2.3583740960        0.0000000000
C         2.8850730885        3.5617341511        0.0000000000
C         0.7576462543        2.3855837359        0.0000000000
C         1.4763854473        3.5954189899        0.0000000000
C         0.7612658567        4.8393623652        0.0000000000
C        -0.5949417602        4.8625904010        0.0000000000
C        -0.6754354678        2.4101288273        0.0000000000
C        -1.3522592486        3.6438822980        0.0000000000
C        -2.7612384642        3.6585447085        0.0000000000
C        -3.4693182521        2.4787943101        0.0000000000
C        -2.8106439047        1.2324499407        0.0000000000
C        -1.4102083414        1.1962112488        0.0000000000
C        -3.5640960514       -0.0118024547        0.0000000000
C        -4.9562854191       -0.0181364534        0.0000000000
C        -5.6660324229       -1.2194018416        0.0000000000
C        -4.9959797202       -2.4282152630        0.0000000000
C        -2.8658074724       -1.2454635717        0.0000000000
C        -3.5912661273       -2.4555253819        0.0000000000
C        -2.8767073318       -3.7002874570        0.0000000000
C        -1.5221222123       -3.7225655210        0.0000000000
C        -0.7543275702       -2.5094626395        0.0000000000
C        -1.4305239559       -1.2776726673        0.0000000000
C         3.5616408294       -0.1339682972        0.0000000000
C         4.9098027356       -2.5980703687        0.0000000000
C         5.6209030141       -1.4129312198        0.0000000000
C         4.9527521142       -0.1880285285        0.0000000000
C         3.5049607910       -2.5772055837        0.0000000000
C         2.8214302073       -1.3429682593        0.0000000000
C         1.3858789622       -1.3259789844        0.0000000000
C         0.6678198567       -2.5338643437        0.0000000000
C         1.3935794021       -3.7725940988        0.0000000000
C         2.7481418002       -3.7967478068        0.0000000000
H         4.6531154499        2.3284663004        0.0000000000
H         3.4442032780        4.5043589841        0.0000000000
H         1.3407740946        5.7697050943        0.0000000000
H        -1.1422255417        5.8122480503        0.0000000000
H        -3.2876785800        4.6197984398        0.0000000000
H        -4.5704929209        2.4866297207        0.0000000000
H        -5.4940617375        0.9425463773        0.0000000000
H        -6.7609026399       -1.1983761143        0.0000000000
H        -5.5534687404       -3.3716878537        0.0000000000
H        -3.4553661436       -4.6311648990        0.0000000000
H        -0.9700355474       -4.6749661114        0.0000000000
H         5.4347135327       -3.5600488639        0.0000000000
H         6.7158491618       -1.4295402839        0.0000000000
H         5.5231223435        0.7536732665        0.0000000000
H         0.8091534032       -4.7054947993        0.0000000000
H         3.2946041025       -4.7468887588        0.0000000000
