 52

C         0.6660696544       -3.1345471366        0.0000000000
C        -0.7136812724       -3.1240527433        0.0000000000
C        -1.4259753369       -1.9136792625        0.0000000000
C        -0.7135245125       -0.7012634987        0.0000000000
C         0.7027952797       -0.7120349907        0.0000000000
C         1.3966992328       -1.9351483291        0.0000000000
C         1.4254775606        0.5346146382        0.0000000000
C         2.8419349130        2.9671855749        0.0000000000
C         0.7310725038        1.7596927984        0.0000000000
C         1.4458336642        2.9799617591        0.0000000000
C         0.7082546507        4.2187321971        0.0000000000
C        -0.6440238475        4.2290043507        0.0000000000
C        -0.7042276373        1.7705937230        0.0000000000
C        -1.4003470749        3.0015861862        0.0000000000
C        -2.7964844370        3.0100398032        0.0000000000
C        -1.4171840916        0.5562160893        0.0000000000
C        -2.8800813666       -1.8972610715        0.0000000000
C        -5.6889408600       -1.8307425416        0.0000000000
C        -5.0153672771       -3.0422007320        0.0000000000
C        -3.6237987175       -3.0779580322        0.0000000000
C        -2.8256381186        0.5761535522        0.0000000000
C        -3.5142335786        1.8113224324        0.0000000000
C        -4.9552176383        1.8056136213        0.0000000000
C        -5.6484080338        0.6443957030        0.0000000000
C        -4.9714453003       -0.6274192371        0.0000000000
C        -3.5603398890       -0.6569997124        0.0000000000
C         2.8508984932       -1.9408419488        0.0000000000
C         3.5765717163       -3.1327184259        0.0000000000
C         4.9685292205       -3.1180979162        0.0000000000
C         5.6604555701       -1.9170240598        0.0000000000
C         2.8340845492        0.5331521018        0.0000000000
C         3.5499196617       -0.7110417463        0.0000000000
C         4.9613142519       -0.7029380030        0.0000000000
C         5.6575568513        0.5584392467        0.0000000000
C         4.9821095167        1.7300675994        0.0000000000
C         3.5413816156        1.7576997338        0.0000000000
H         1.2193936679       -4.0865723952        0.0000000000
H        -1.2814018647       -4.0675616046        0.0000000000
H         3.3947172328        3.9147886229        0.0000000000
H         1.2785878329        5.1548599257        0.0000000000
H        -1.2000611334        5.1736945793        0.0000000000
H        -3.3347998789        3.9659355569        0.0000000000
H        -6.7845775161       -1.8082048722        0.0000000000
H        -5.5798099495       -3.9806281110        0.0000000000
H        -3.0903452942       -4.0410518403        0.0000000000
H        -5.4730435641        2.7717263840        0.0000000000
H        -6.7445688438        0.6420850953        0.0000000000
H         3.0285312632       -4.0875868447        0.0000000000
H         5.5186486077       -4.0649957136        0.0000000000
H         6.7563053067       -1.9111383425        0.0000000000
H         6.7535562575        0.5394576099        0.0000000000
H         5.5145789465        2.6881878277        0.0000000000
