 52

C         5.6833246678       -2.3316986519        0.0000000000
C         4.3787448296       -2.6661659893        0.0000000000
C         3.3373486212       -1.6573407540        0.0000000000
C         2.0125200655       -1.9990161524        0.0000000000
C         0.9957548047       -0.9940578233        0.0000000000
C         1.3597643795        0.3802296942        0.0000000000
C         0.3559555292        1.3505331555        0.0000000000
C        -0.3559447707       -1.3505680152        0.0000000000
C        -1.3597444077       -0.3802694235        0.0000000000
C        -0.9957199105        0.9940203263        0.0000000000
C        -2.0124974241        1.9989868363        0.0000000000
C        -3.3373197517        1.6573046193        0.0000000000
C        -4.3787241578        2.6661389564        0.0000000000
C        -5.6832626616        2.3316962480        0.0000000000
C        -6.1043956786        0.9460493316        0.0000000000
C        -7.4461969056        0.5958146898        0.0000000000
C        -7.8247427253       -0.7533263197        0.0000000000
C        -6.8738692127       -1.7517363221        0.0000000000
C        -3.7239845276        0.2712070422        0.0000000000
C        -5.1131912479       -0.0709806732        0.0000000000
C        -5.5021631363       -1.4258815139        0.0000000000
C        -4.4916021277       -2.4378485504        0.0000000000
C        -3.1740273552       -2.1013414404        0.0000000000
C        -2.7579038019       -0.7337869661        0.0000000000
C         6.1043958433       -0.9460397228        0.0000000000
C         7.4462101104       -0.5957405218        0.0000000000
C         7.8246879411        0.7533799535        0.0000000000
C         6.8738203386        1.7517808700        0.0000000000
C         5.1131761366        0.0709532896        0.0000000000
C         5.5021268501        1.4258622430        0.0000000000
C         4.4915713151        2.4379016226        0.0000000000
C         3.1740205341        2.1013664151        0.0000000000
C         2.7578923539        0.7338008410        0.0000000000
C         3.7239664640       -0.2712358175        0.0000000000
H         6.4648779845       -3.1003106623        0.0000000000
H         4.0655671959       -3.7167832364        0.0000000000
H         1.7075489580       -3.0529067331        0.0000000000
H         0.6468260337        2.4136599184        0.0000000000
H        -0.6467350356       -2.4137181787        0.0000000000
H        -1.7074654170        3.0528615195        0.0000000000
H        -4.0655163192        3.7167444679        0.0000000000
H        -6.4648215424        3.1003048697        0.0000000000
H        -8.2165875656        1.3752127388        0.0000000000
H        -8.8893235067       -1.0103384768        0.0000000000
H        -7.1738979910       -2.8057044349        0.0000000000
H        -4.8036544955       -3.4884059872        0.0000000000
H        -2.3885863132       -2.8729449183        0.0000000000
H         8.2165825773       -1.3751487632        0.0000000000
H         8.8892419040        1.0104831321        0.0000000000
H         7.1738711788        2.8057320327        0.0000000000
H         4.8036513062        3.4884406341        0.0000000000
H         2.3885284246        2.8729235618        0.0000000000
